geometry optimzed in LAMMPS
_audit_creation_date              2020-12-01 
_audit_creation_method            'lammps2cif' 
_symmetry_space_group_name_H-M    'P1' 
_symmetry_Int_Tables_number       1 
_symmetry_cell_setting            triclinic 
loop_ 
_symmetry_equiv_pos_as_xyz 
  x,y,z 
_cell_length_a                    38.75916975 
_cell_length_b                    37.30008376703996 
_cell_length_c                    37.28378427716846 
_cell_angle_alpha                 89.33110913081795 
_cell_angle_beta                  89.75033411078873 
_cell_angle_gamma                 91.0472031719116 
loop_ 
_atom_site_label 
_atom_site_type_symbol 
_atom_site_fract_x 
_atom_site_fract_y 
_atom_site_fract_z 
_atom_site_charge 
N1          N  0.46133867  0.45299345  0.06650670    -0.05800
N2          N  0.43628569  0.44667599  0.08996494    -0.57900
N3          N  0.03881001  0.42772271  0.04152389    -0.05500
N4          N  0.06212061  0.40334394  0.04886599    -0.60000
N5          N  0.03917957  0.45270454  0.06617868    -0.05100
N6          N  0.06266827  0.44589872  0.09058368    -0.57900
N7          N  0.46104720  0.42785790  0.04201969    -0.04700
N8          N  0.43580065  0.40418488  0.04828472    -0.60400
C9          C  0.42031037  0.41629465  0.07825424     0.96400
C10         C  0.07686996  0.41514705  0.07952319     0.96200
N11         N  0.03901158  0.45237391  0.43008602    -0.06000
N12         N  0.06185892  0.44547046  0.40476077    -0.58500
N13         N  0.45921940  0.42855911  0.45887952    -0.04100
N14         N  0.43518439  0.40398111  0.45260056    -0.59700
N15         N  0.45856250  0.45398719  0.43420479    -0.06000
N16         N  0.43410119  0.44716234  0.41057592    -0.58700
N17         N  0.03984538  0.42761269  0.45547174    -0.03700
N18         N  0.06326142  0.40339123  0.44779553    -0.59800
Mn19       Mn  0.49965976  0.42721177  0.50006113     1.18400
C20         C  0.07701608  0.41489021  0.41605730     0.98500
C21         C  0.41956300  0.41594451  0.42249131     0.99100
N22         N  0.04393452  0.03834242  0.06852545    -0.06000
N23         N  0.06572994  0.04619454  0.09478483    -0.62300
N24         N  0.46674441  0.06424824  0.04190998    -0.04800
N25         N  0.44607172  0.09068756  0.04987448    -0.63000
N26         N  0.46488156  0.03897628  0.06679025    -0.05500
N27         N  0.44290445  0.04779061  0.09221490    -0.62600
N28         N  0.04605662  0.06293183  0.04287153    -0.04400
N29         N  0.06961454  0.08773075  0.05134983    -0.63300
Mn30       Mn  0.00228608  0.99607588  0.06820088     1.10700
C31         C  0.08196862  0.07698705  0.08381686     0.99700
C32         C  0.43126680  0.08006189  0.08121978     0.99800
N33         N  0.46216223  0.03923229  0.43290307    -0.05500
N34         N  0.43805236  0.04708680  0.40910141    -0.60900
N35         N  0.04378438  0.06113825  0.45633640    -0.04800
N36         N  0.06880069  0.08421602  0.44815951    -0.57600
N37         N  0.04095488  0.03670504  0.43128091    -0.06200
N38         N  0.06385490  0.04256674  0.40562746    -0.60500
N39         N  0.46458438  0.06451605  0.45718518    -0.05100
N40         N  0.44212016  0.08994447  0.45017474    -0.57700
Mn41       Mn  0.49933792  0.49558191  0.43167509     1.20200
Mn42       Mn  0.00579886  0.06416552  0.99933659     1.10100
Cl43       Cl  0.00208029  0.99582789  0.99988222    -0.85600
C44         C  0.42548084  0.07881724  0.42019328     0.96700
C45         C  0.08107838  0.07211539  0.41659148     0.96500
C46         C  0.17582591  0.16487515  0.33338929    -0.02100
C47         C  0.16965348  0.32398602  0.32918166    -0.02100
C48         C  0.16735272  0.32390139  0.16567807    -0.02100
C49         C  0.18320953  0.16618649  0.17059397    -0.02100
C50         C  0.33384760  0.16868696  0.32920431    -0.02100
C51         C  0.34071865  0.17008844  0.16690874    -0.02100
C52         C  0.32512800  0.33177942  0.17235830    -0.02100
C53         C  0.32669819  0.33080748  0.33031246    -0.02100
C54         C  0.36280258  0.34016646  0.23165919    -0.11900
C55         C  0.33156147  0.34539721  0.21264519     0.05100
C56         C  0.30676716  0.36497252  0.23342846    -0.07200
C57         C  0.30774815  0.36340221  0.27096223    -0.08000
C58         C  0.33352326  0.34495414  0.28994595    -0.02500
C59         C  0.36452904  0.34202409  0.26978677     0.04300
N60         N  0.39731916  0.33996950  0.28718202     0.66800
H61         H  0.38657231  0.33859437  0.21735360     0.15700
H62         H  0.28697641  0.37601792  0.28518079     0.15400
N63         N  0.27982570  0.38600919  0.21837319     0.74500
O64         O  0.41632718  0.31341991  0.28187548    -0.38900
O65         O  0.41065552  0.36820791  0.29979718    -0.38900
O66         O  0.24960792  0.37335585  0.22052203    -0.39600
O67         O  0.28312580  0.41963865  0.21973506    -0.39600
C68         C  0.37152324  0.23458648  0.17230204    -0.11900
C69         C  0.34625818  0.21239654  0.15549943     0.05100
C70         C  0.32528656  0.23244247  0.13160230    -0.07200
C71         C  0.31811089  0.26923771  0.13914060    -0.08000
C72         C  0.33738808  0.29057170  0.16387518    -0.02500
C73         C  0.36906428  0.27308592  0.17359561     0.04300
N74         N  0.40035555  0.29279994  0.17977885     0.66800
H75         H  0.39331876  0.22182764  0.18483136     0.15700
H76         H  0.29873422  0.28214300  0.12299746     0.15400
N77         N  0.31791498  0.21937698  0.09625829     0.74500
O78         O  0.42107868  0.28222742  0.20353792    -0.38900
O79         O  0.41068737  0.31576223  0.15684753    -0.38900
O80         O  0.29691837  0.23575719  0.07646658    -0.39600
O81         O  0.33932759  0.19930348  0.08126538    -0.39600
C82         C  0.31805041  0.17339507  0.26411562    -0.11900
C83         C  0.34204617  0.16051368  0.28763905     0.05100
C84         C  0.37244329  0.14726263  0.26888948    -0.07200
C85         C  0.37378680  0.14813547  0.22953523    -0.08000
C86         C  0.34890072  0.16776154  0.20917423    -0.02500
C87         C  0.32642021  0.18550171  0.23099206     0.04300
N88         N  0.31265268  0.21786080  0.22087293     0.66800
H89         H  0.29265419  0.17917150  0.27073115     0.15700
H90         H  0.39472570  0.13525759  0.21573937     0.15400
N91         N  0.40060043  0.13148037  0.28778492     0.74500
O92         O  0.29088418  0.21866726  0.19616030    -0.38900
O93         O  0.32958195  0.24530699  0.22978062    -0.38900
O94         O  0.41003546  0.10040186  0.27964469    -0.39600
O95         O  0.42071785  0.15091886  0.30593412    -0.39600
C96         C  0.33116853  0.22886932  0.36649838    -0.11900
C97         C  0.34371582  0.21018893  0.33615664     0.05100
C98         C  0.35983865  0.23261115  0.31000992    -0.07200
C99         C  0.35154737  0.26901236  0.30716774    -0.08000
C100        C  0.33532880  0.28846348  0.33478259    -0.02500
C101        C  0.32755874  0.26706535  0.36648418     0.04300
N102        N  0.31294908  0.28260300  0.39792072     0.66800
H103        H  0.32060488  0.21348840  0.38892946     0.15700
H104        H  0.35927060  0.28081761  0.28238927     0.15400
N105        N  0.39071521  0.22182821  0.29242729     0.74500
O106        O  0.28057772  0.28426731  0.40077779    -0.38900
O107        O  0.33070481  0.28339578  0.42619885    -0.38900
O108        O  0.39373070  0.22625169  0.25896273    -0.39600
O109        O  0.41784347  0.22087071  0.31098028    -0.39600
C110        C  0.24200549  0.15075885  0.13374529    -0.11900
C111        C  0.22443436  0.15643628  0.16702402     0.05100
C112        C  0.24770182  0.15079529  0.19666908    -0.07200
C113        C  0.28220643  0.14138190  0.19109503    -0.08000
C114        C  0.30080124  0.15500006  0.16138671    -0.02500
C115        C  0.27939046  0.15252948  0.13002521     0.04300
N116        N  0.29378623  0.14479984  0.09555323     0.66800
H117        H  0.22726317  0.14644236  0.11012935     0.15700
H118        H  0.29564737  0.12964055  0.21345742     0.15400
N119        N  0.23984961  0.15851574  0.23294544     0.74500
O120        O  0.27879837  0.15559331  0.06754168    -0.38900
O121        O  0.31540406  0.12012069  0.09277042    -0.38900
O122        O  0.24704729  0.13580463  0.25708565    -0.39600
O123        O  0.23615692  0.19079933  0.24135168    -0.39600
C124        C  0.18841219  0.26624255  0.13355489    -0.11900
C125        C  0.16157190  0.28260484  0.15264184     0.05100
C126        C  0.13377343  0.25777319  0.15987083    -0.07200
C127        C  0.14092430  0.22022601  0.16323636    -0.08000
C128        C  0.17468670  0.20630740  0.15803760    -0.02500
C129        C  0.19679810  0.23037973  0.13872975     0.04300
N130        N  0.22817836  0.22034073  0.12305781     0.66800
H131        H  0.20720581  0.28239363  0.11883004     0.15700
H132        H  0.12022216  0.20180122  0.17094924     0.15400
N133        N  0.09862443  0.26757678  0.15377494     0.74500
O134        O  0.23009463  0.21859264  0.08934047    -0.38900
O135        O  0.25493808  0.22800424  0.14024104    -0.38900
O136        O  0.09177845  0.28983395  0.12918990    -0.39600
O137        O  0.07427849  0.24865019  0.16700288    -0.39600
C138        C  0.22651332  0.30659544  0.18156864    -0.11900
C139        C  0.20806515  0.33163690  0.16268098     0.05100
C140        C  0.22871863  0.35788709  0.14357720    -0.07200
C141        C  0.26601101  0.35639856  0.14445042    -0.08000
C142        C  0.28400720  0.33147348  0.16679935    -0.02500
C143        C  0.26190164  0.30659367  0.18607053     0.04300
N144        N  0.27281633  0.28323539  0.21427616     0.66800
H145        H  0.21136524  0.28590630  0.19506935     0.15700
H146        H  0.28065936  0.37681568  0.12986869     0.15400
N147        N  0.21326419  0.38775577  0.12595531     0.74500
O148        O  0.25288391  0.25794621  0.22457753    -0.38900
O149        O  0.29314836  0.29514162  0.23716051    -0.38900
O150        O  0.20025204  0.41202767  0.14472686    -0.39600
O151        O  0.22045679  0.39447664  0.09349949    -0.39600
C152        C  0.17427648  0.35834166  0.22742004    -0.11900
C153        C  0.15872128  0.32965584  0.20798529     0.05100
C154        C  0.13462449  0.30941378  0.22917699    -0.07200
C155        C  0.13995150  0.30593924  0.26686345    -0.08000
C156        C  0.16059412  0.33020055  0.28697537    -0.02500
C157        C  0.17402495  0.35989820  0.26575960     0.04300
N158        N  0.18907092  0.39101241  0.28211158     0.66800
H159        H  0.18730218  0.37970542  0.21260143     0.15700
H160        H  0.12447526  0.28632822  0.28027893     0.15400
N161        N  0.09979405  0.30429625  0.21671613     0.74500
O162        O  0.17238628  0.41974831  0.28168231    -0.38900
O163        O  0.22130245  0.39295226  0.28630642    -0.38900
O164        O  0.07870749  0.28492508  0.23451380    -0.39600
O165        O  0.08754182  0.32657705  0.19471245    -0.39600
C166        C  0.22803666  0.35400117  0.35770543    -0.11900
C167        C  0.21029037  0.33157308  0.33251818     0.05100
C168        C  0.23200025  0.31123711  0.31090255    -0.07200
C169        C  0.26730800  0.31336339  0.31328776    -0.08000
C170        C  0.28606051  0.33344055  0.33741008    -0.02500
C171        C  0.26539547  0.35448867  0.36105524     0.04300
N172        N  0.28079324  0.37514398  0.38910775     0.66800
H173        H  0.21323031  0.37058224  0.37539350     0.15700
H174        H  0.28137554  0.29817112  0.29490945     0.15400
N175        N  0.21919379  0.29234556  0.28120929     0.74500
O176        O  0.27082941  0.40663873  0.39459127    -0.38900
O177        O  0.29857438  0.35975953  0.41278773    -0.38900
O178        O  0.20472375  0.26194669  0.28378524    -0.39600
O179        O  0.22028228  0.30854004  0.25182558    -0.39600
C180        C  0.17552516  0.13021585  0.27155279    -0.11900
C181        C  0.16749072  0.16151004  0.29110508     0.05100
C182        C  0.15338037  0.18893946  0.26952779    -0.07200
C183        C  0.16480928  0.19252215  0.23380224    -0.08000
C184        C  0.17332563  0.16225114  0.21265569    -0.02500
C185        C  0.17511796  0.12924615  0.23324490     0.04300
N186        N  0.17990432  0.09515259  0.21666354     0.66800
H187        H  0.18272581  0.10626899  0.28598471     0.15700
H188        H  0.16425238  0.21938962  0.22316693     0.15400
N189        N  0.11802376  0.19836921  0.27488789     0.74500
O190        O  0.20951199  0.08621630  0.20634813    -0.38900
O191        O  0.15724796  0.07083452  0.22159566    -0.38900
O192        O  0.10642889  0.22558318  0.25907629    -0.39600
O193        O  0.09668847  0.17495394  0.28648057    -0.39600
C194        C  0.23452969  0.18473832  0.31803773    -0.11900
C195        C  0.21600046  0.15801868  0.33515277     0.05100
C196        C  0.23663389  0.13060973  0.35140270    -0.07200
C197        C  0.27403948  0.13455583  0.35208904    -0.08000
C198        C  0.29217355  0.16477594  0.33649460    -0.02500
C199        C  0.26893956  0.19140390  0.32406297     0.04300
N200        N  0.27804203  0.22749756  0.31825588     0.66800
H201        H  0.22069915  0.20521414  0.30397242     0.15700
H202        H  0.28829049  0.11407633  0.36557306     0.15400
N203        N  0.22131979  0.09750347  0.36389378     0.74500
O204        O  0.26457876  0.24863629  0.34000118    -0.38900
O205        O  0.28359329  0.23813261  0.28664727    -0.38900
O206        O  0.20484632  0.07808672  0.34214255    -0.39600
O207        O  0.23125373  0.08370905  0.39305131    -0.39600
C208        C  0.13637855  0.22168928  0.34311543    -0.11900
C209        C  0.16845737  0.20490754  0.34820006     0.05100
C210        C  0.19277443  0.22811375  0.36597244    -0.07200
C211        C  0.19063228  0.26538547  0.36115968    -0.08000
C212        C  0.16351118  0.28269134  0.34268483    -0.02500
C213        C  0.13299143  0.26001735  0.34057135     0.04300
N214        N  0.09869059  0.27408146  0.33669108     0.66800
H215        H  0.11373376  0.20467072  0.34103966     0.15700
H216        H  0.21052415  0.28104932  0.37422464     0.15400
N217        N  0.21313773  0.21697151  0.39623496     0.74500
O218        O  0.07423293  0.25408044  0.32611534    -0.38900
O219        O  0.09179649  0.30538016  0.34634394    -0.38900
O220        O  0.24094930  0.20061798  0.39217306    -0.39600
O221        O  0.20819542  0.23206054  0.42594227    -0.39600
C222        C  0.12805023  0.11572275  0.33848829    -0.11900
C223        C  0.15340422  0.13746582  0.35565756     0.05100
C224        C  0.15468417  0.13464775  0.39389749    -0.07200
C225        C  0.13199507  0.11169149  0.41258123    -0.08000
C226        C  0.10703638  0.09153797  0.39497858    -0.02500
C227        C  0.10544711  0.09302416  0.35749139     0.04300
N228        N  0.07913926  0.07405336  0.33828152     0.66800
H229        H  0.12364110  0.11675614  0.31006971     0.15700
H230        H  0.13313345  0.11074590  0.44164734     0.15400
N231        N  0.17605926  0.15688974  0.41549076     0.74500
O232        O  0.05097016  0.08916990  0.33165325    -0.38900
O233        O  0.08646109  0.04556665  0.32223071    -0.38900
O234        O  0.16117063  0.17877735  0.43570410    -0.39600
O235        O  0.20488156  0.14510360  0.42521340    -0.39600
C236        C  0.12098077  0.36789493  0.08403288    -0.11900
C237        C  0.10216000  0.39470143  0.10062298     0.05100
C238        C  0.10694994  0.40062342  0.13743604    -0.07200
C239        C  0.12883562  0.37877783  0.15707979    -0.08000
C240        C  0.14663833  0.34998947  0.14150009    -0.02500
C241        C  0.14348191  0.34613034  0.10353106     0.04300
N242        N  0.16183021  0.31986745  0.08386837     0.66800
H243        H  0.11818928  0.36361580  0.05547655     0.15700
H244        H  0.13036968  0.38455367  0.18521777     0.15400
N245        N  0.08813937  0.42727138  0.15615807     0.74500
O246        O  0.14507896  0.29464973  0.06929428    -0.38900
O247        O  0.19176732  0.32751958  0.07241531    -0.38900
O248        O  0.05946935  0.41895871  0.17043497    -0.39600
O249        O  0.10299256  0.45640898  0.16434911    -0.39600
C250        C  0.39034233  0.16138439  0.12229163    -0.11900
C251        C  0.36588691  0.14599651  0.14640361     0.05100
C252        C  0.36532025  0.10785358  0.15018507    -0.07200
C253        C  0.38688050  0.08708321  0.12879312    -0.08000
C254        C  0.40913507  0.10295378  0.10330792    -0.02500
C255        C  0.41097967  0.14055199  0.10046298     0.04300
N256        N  0.43446873  0.15837112  0.07623411     0.66800
H257        H  0.39382559  0.19001865  0.11930449     0.15700
H258        H  0.38560581  0.05813851  0.13168058     0.15400
N259        N  0.34231994  0.08925855  0.17442728     0.74500
O260        O  0.42360432  0.16997874  0.04650795    -0.38900
O261        O  0.46357437  0.16888151  0.08742034    -0.38900
O262        O  0.31516152  0.07500556  0.16205819    -0.39600
O263        O  0.35413497  0.07714186  0.20353365    -0.39600
C264        C  0.13318055  0.11936928  0.08876616    -0.11900
C265        C  0.10795839  0.09801840  0.10584935     0.05100
C266        C  0.10627163  0.09976149  0.14352233    -0.07200
C267        C  0.12989029  0.12146889  0.16284210    -0.08000
C268        C  0.15769139  0.14151796  0.14660113    -0.02500
C269        C  0.15650435  0.14187107  0.10774556     0.04300
N270        N  0.17309508  0.16909393  0.08615668     0.66800
H271        H  0.13337919  0.12053114  0.05969864     0.15800
H272        H  0.12416980  0.12385210  0.19096108     0.15400
N273        N  0.07865327  0.08219078  0.16267457     0.74500
O274        O  0.19190395  0.15929805  0.06043501    -0.38900
O275        O  0.15770372  0.19843153  0.08251475    -0.38900
O276        O  0.08373347  0.05261251  0.17835495    -0.39600
O277        O  0.05125909  0.09887173  0.16883793    -0.39600
C278        C  0.37358362  0.41195987  0.37623113    -0.11900
C279        C  0.39416901  0.39474213  0.40163587     0.05100
C280        C  0.39283968  0.35716447  0.40386666    -0.07200
C281        C  0.37242919  0.33772896  0.38007709    -0.08000
C282        C  0.34970286  0.35423296  0.35550353    -0.02500
C283        C  0.35157429  0.39259103  0.35337879     0.04300
N284        N  0.33520024  0.41252850  0.32546196     0.66800
H285        H  0.37524969  0.44088649  0.37328609     0.15700
H286        H  0.37600682  0.30926745  0.38106974     0.15400
N287        N  0.41345436  0.33783014  0.42894681     0.74500
O288        O  0.35325751  0.42326299  0.29903798    -0.38900
O289        O  0.30745174  0.42831404  0.33212136    -0.38900
O290        O  0.39993700  0.32622352  0.45776936    -0.39600
O291        O  0.44245531  0.32639794  0.41931061    -0.39600
C292        C  0.37841863  0.08465468  0.37374521    -0.11900
C293        C  0.40006133  0.10074555  0.39937366     0.05100
C294        C  0.39829397  0.13809278  0.40339279    -0.07200
C295        C  0.37742739  0.15853793  0.38078890    -0.08000
C296        C  0.35547628  0.14331724  0.35434863    -0.02500
C297        C  0.35581186  0.10483157  0.35190290     0.04300
N298        N  0.33344221  0.08502594  0.32827030     0.66800
H299        H  0.37895086  0.05583055  0.37057146     0.15700
H300        H  0.37942068  0.18700521  0.38478562     0.15400
N301        N  0.41826356  0.15632515  0.42993308     0.74500
O302        O  0.31419096  0.06055277  0.34148983    -0.38900
O303        O  0.34034150  0.08372101  0.29526761    -0.38900
O304        O  0.44481742  0.17422374  0.42061635    -0.39600
O305        O  0.40575748  0.16031644  0.46091081    -0.39600
C306        C  0.12335749  0.36875555  0.41128402    -0.11900
C307        C  0.10259612  0.39436420  0.39454948     0.05100
C308        C  0.10535584  0.39852898  0.35709053    -0.07200
C309        C  0.12686665  0.37629948  0.33726369    -0.08000
C310        C  0.14816101  0.35003434  0.35331197    -0.02500
C311        C  0.14608807  0.34713862  0.39163701     0.04300
N312        N  0.16442605  0.32059586  0.41140874     0.66800
H313        H  0.12163504  0.36498613  0.44010713     0.15700
H314        H  0.12495961  0.37937763  0.30864461     0.15400
N315        N  0.08494389  0.42393847  0.33807675     0.74500
O316        O  0.19193511  0.32963703  0.42714631    -0.38900
O317        O  0.14804553  0.29306526  0.42254370    -0.38900
O318        O  0.09863258  0.45306796  0.32722894    -0.39600
O319        O  0.05559321  0.41461801  0.32657512    -0.39600
C320        C  0.38482711  0.40932021  0.13292432    -0.11900
C321        C  0.39260908  0.39676546  0.09897940     0.05100
C322        C  0.37425852  0.36627619  0.08677432    -0.07200
C323        C  0.35085276  0.34775435  0.10984595    -0.08000
C324        C  0.34505258  0.35832728  0.14579832    -0.02500
C325        C  0.36105421  0.39193527  0.15566773     0.04300
N326        N  0.35095459  0.41257141  0.18580219     0.66800
H327        H  0.39689274  0.43396059  0.14218106     0.15700
H328        H  0.33789153  0.32432931  0.09937083     0.15400
N329        N  0.37883762  0.35369584  0.05106813     0.74500
O330        O  0.37112687  0.41407687  0.21225894    -0.38900
O331        O  0.33307410  0.43977776  0.17916081    -0.38900
O332        O  0.39528319  0.32533063  0.04585139    -0.39600
O333        O  0.36108567  0.36678810  0.02600333    -0.39600
N334        N  0.46077304  0.45354717  0.56725442    -0.05800
N335        N  0.43593529  0.44720323  0.59097379    -0.57900
N336        N  0.04060189  0.42778252  0.54117010    -0.05500
N337        N  0.06378738  0.40326192  0.54857629    -0.60000
N338        N  0.04094826  0.45267732  0.56590584    -0.05100
N339        N  0.06429860  0.44567924  0.59040222    -0.57900
N340        N  0.46028440  0.42845514  0.54271299    -0.04700
N341        N  0.43510488  0.40478247  0.54922631    -0.60400
C342        C  0.41988798  0.41682257  0.57939128     0.96400
C343        C  0.07846672  0.41490366  0.57934989     0.96200
N344        N  0.03733298  0.45095459  0.93025698    -0.06000
N345        N  0.05956225  0.44309229  0.90462150    -0.58500
N346        N  0.46032046  0.42820606  0.95848663    -0.04100
N347        N  0.43593381  0.40394240  0.95254419    -0.59700
N348        N  0.45968918  0.45363157  0.93381189    -0.06000
N349        N  0.43488721  0.44709152  0.91047739    -0.58700
N350        N  0.03799389  0.42648046  0.95592337    -0.03700
N351        N  0.06071564  0.40157008  0.94824479    -0.59800
Mn352      Mn  0.50061280  0.42668577  0.99972431     1.18400
C353        C  0.07418515  0.41228518  0.91615464     0.98500
C354        C  0.42011916  0.41606525  0.92262964     0.99100
N355        N  0.04357859  0.03838909  0.56893384    -0.06000
N356        N  0.06550369  0.04589701  0.59516616    -0.62300
N357        N  0.46637819  0.06458145  0.54218655    -0.04800
N358        N  0.44601022  0.09123984  0.55019559    -0.63000
N359        N  0.46440181  0.03933174  0.56708243    -0.05500
N360        N  0.44263813  0.04840885  0.59258787    -0.62600
N361        N  0.04576659  0.06309552  0.54340406    -0.04400
N362        N  0.06950109  0.08768869  0.55197543    -0.63300
Mn363      Mn  0.00214543  0.99602809  0.56825026     1.10700
C364        C  0.08188550  0.07664698  0.58435435     0.99700
C365        C  0.43127223  0.08079307  0.58159728     0.99800
N366        N  0.46248649  0.03856385  0.93246888    -0.05500
N367        N  0.43874627  0.04668056  0.90834907    -0.60900
N368        N  0.04410470  0.06040238  0.95593216    -0.04800
N369        N  0.06947853  0.08307451  0.94782480    -0.57600
N370        N  0.04118614  0.03582972  0.93102095    -0.06200
N371        N  0.06436018  0.04121976  0.90552249    -0.60500
N372        N  0.46494294  0.06389083  0.95672694    -0.05100
N373        N  0.44285658  0.08957858  0.94938899    -0.57700
Mn374      Mn  0.50062225  0.49506947  0.93133473     1.20200
Mn375      Mn  0.00552628  0.06435829  0.49974248     1.10100
Cl376      Cl  0.00216931  0.99606024  0.49992776    -0.85600
C377        C  0.42646867  0.07860888  0.91921703     0.96700
C378        C  0.08187834  0.07061097  0.91644862     0.96500
C379        C  0.17680843  0.16372142  0.83384395    -0.02100
C380        C  0.16889823  0.32251541  0.83037720    -0.02100
C381        C  0.16686558  0.32262938  0.66715986    -0.02100
C382        C  0.18401893  0.16493010  0.67099414    -0.02100
C383        C  0.33479249  0.16947248  0.82946565    -0.02100
C384        C  0.34152811  0.17121399  0.66737809    -0.02100
C385        C  0.32446078  0.33274678  0.67349741    -0.02100
C386        C  0.32598975  0.33149912  0.83143629    -0.02100
C387        C  0.36215747  0.34200844  0.73274781    -0.11900
C388        C  0.33084097  0.34674277  0.71373889     0.05100
C389        C  0.30573669  0.36584295  0.73464844    -0.07200
C390        C  0.30669420  0.36410175  0.77219369    -0.08000
C391        C  0.33266956  0.34587934  0.79109784    -0.02500
C392        C  0.36376299  0.34349164  0.77092895     0.04300
N393        N  0.39654679  0.34164638  0.78836635     0.66800
H394        H  0.38597138  0.34086460  0.71843035     0.15700
H395        H  0.28575122  0.37642223  0.78645658     0.15400
N396        N  0.27860329  0.38672049  0.71973751     0.74500
O397        O  0.41572796  0.31523267  0.78306899    -0.38900
O398        O  0.40968476  0.36994741  0.80105616    -0.38900
O399        O  0.24848403  0.37376587  0.72179240    -0.39600
O400        O  0.28160492  0.42035575  0.72151348    -0.39600
C401        C  0.37189032  0.23596846  0.67275307    -0.11900
C402        C  0.34677446  0.21356716  0.65595199     0.05100
C403        C  0.32542433  0.23350572  0.63236109    -0.07200
C404        C  0.31785751  0.27014803  0.64023117    -0.08000
C405        C  0.33702489  0.29160057  0.66500383    -0.02500
C406        C  0.36893815  0.27442439  0.67447066     0.04300
N407        N  0.39986565  0.29448580  0.68138305     0.66800
H408        H  0.39385783  0.22339735  0.68514817     0.15700
H409        H  0.29824015  0.28289868  0.62428306     0.15400
N410        N  0.31776428  0.22046189  0.59705964     0.74500
O411        O  0.42029348  0.28400473  0.70545876    -0.38900
O412        O  0.41034268  0.31769800  0.65877239    -0.38900
O413        O  0.29669395  0.23692049  0.57741833    -0.39600
O414        O  0.33898942  0.20029975  0.58190795    -0.39600
C415        C  0.31883829  0.17429038  0.76445736    -0.11900
C416        C  0.34299414  0.16164260  0.78790174     0.05100
C417        C  0.37357760  0.14884153  0.76919448    -0.07200
C418        C  0.37502222  0.14989090  0.72989233    -0.08000
C419        C  0.34980340  0.16906891  0.70957413    -0.02500
C420        C  0.32705703  0.18646006  0.73134307     0.04300
N421        N  0.31303416  0.21869242  0.72127826     0.66800
H422        H  0.29343844  0.17981114  0.77107942     0.15700
H423        H  0.39617550  0.13736288  0.71611601     0.15400
N424        N  0.40180742  0.13325744  0.78810437     0.74500
O425        O  0.29112322  0.21939618  0.69668238    -0.38900
O426        O  0.32979654  0.24622283  0.73022983    -0.38900
O427        O  0.40956763  0.10120142  0.78194819    -0.39600
O428        O  0.42395539  0.15329855  0.80281680    -0.39600
C429        C  0.33178579  0.22936955  0.86721741    -0.11900
C430        C  0.34432925  0.21101171  0.83669217     0.05100
C431        C  0.36009566  0.23375467  0.81058603    -0.07200
C432        C  0.35136722  0.27006046  0.80791867    -0.08000
C433        C  0.33496157  0.28916854  0.83565764    -0.02500
C434        C  0.32758080  0.26752215  0.86731662     0.04300
N435        N  0.31297831  0.28278097  0.89890132     0.66800
H436        H  0.32163751  0.21373880  0.88967747     0.15700
H437        H  0.35890436  0.28210907  0.78318208     0.15400
N438        N  0.39109814  0.22344242  0.79295665     0.74500
O439        O  0.28061775  0.28461840  0.90172085    -0.38900
O440        O  0.33071995  0.28333209  0.92719672    -0.38900
O441        O  0.39418584  0.22827160  0.75954938    -0.39600
O442        O  0.41816535  0.22236931  0.81159586    -0.39600
C443        C  0.24308668  0.15012918  0.63420640    -0.11900
C444        C  0.22538552  0.15575109  0.66743870     0.05100
C445        C  0.24874159  0.15069167  0.69712124    -0.07200
C446        C  0.28336893  0.14183643  0.69161205    -0.08000
C447        C  0.30177207  0.15567267  0.66190508    -0.02500
C448        C  0.28046683  0.15251978  0.63053158     0.04300
N449        N  0.29506958  0.14441397  0.59625610     0.66800
H450        H  0.22845763  0.14524205  0.61063507     0.15700
H451        H  0.29694522  0.13031147  0.71399312     0.15400
N452        N  0.24080826  0.15842717  0.73336649     0.74500
O453        O  0.28033563  0.15510068  0.56805889    -0.38900
O454        O  0.31622873  0.11926096  0.59386777    -0.38900
O455        O  0.24837096  0.13590834  0.75755982    -0.39600
O456        O  0.23677818  0.19069015  0.74166516    -0.39600
C457        C  0.18868148  0.26527176  0.63502210    -0.11900
C458        C  0.16161466  0.28128850  0.65411962     0.05100
C459        C  0.13390062  0.25625504  0.66101102    -0.07200
C460        C  0.14118822  0.21864371  0.66373256    -0.08000
C461        C  0.17505910  0.20496859  0.65847781    -0.02500
C462        C  0.19707956  0.22934461  0.63950519     0.04300
N463        N  0.22841846  0.21955791  0.62355213     0.66800
H464        H  0.20746788  0.28165939  0.62054598     0.15700
H465        H  0.12063249  0.20002635  0.67139953     0.15400
N466        N  0.09859111  0.26637520  0.65651092     0.74500
O467        O  0.23011163  0.21777025  0.58982422    -0.38900
O468        O  0.25525143  0.22743185  0.64051587    -0.38900
O469        O  0.09124710  0.29141829  0.63498662    -0.39600
O470        O  0.07449060  0.24603083  0.66802120    -0.39600
C471        C  0.22628403  0.30608044  0.68303929    -0.11900
C472        C  0.20746161  0.33092242  0.66431120     0.05100
C473        C  0.22768954  0.35764572  0.64538301    -0.07200
C474        C  0.26498338  0.35667286  0.64602664    -0.08000
C475        C  0.28335954  0.33194473  0.66820841    -0.02500
C476        C  0.26166983  0.30676222  0.68759535     0.04300
N477        N  0.27298114  0.28371614  0.71589454     0.66800
H478        H  0.21145409  0.28511310  0.69650955     0.15700
H479        H  0.27931119  0.37738662  0.63151929     0.15400
N480        N  0.21178844  0.38766633  0.62851640     0.74500
O481        O  0.25342120  0.25821121  0.72640851    -0.38900
O482        O  0.29340826  0.29588472  0.73856024    -0.38900
O483        O  0.19953680  0.41188035  0.64791839    -0.39600
O484        O  0.21791609  0.39454699  0.59586888    -0.39600
C485        C  0.17287811  0.35718079  0.72902388    -0.11900
C486        C  0.15791810  0.32824358  0.70944116     0.05100
C487        C  0.13401468  0.30754462  0.73052003    -0.07200
C488        C  0.13940276  0.30386210  0.76820032    -0.08000
C489        C  0.15976312  0.32834455  0.78825080    -0.02500
C490        C  0.17223726  0.35856789  0.76736037     0.04300
N491        N  0.18577173  0.39007874  0.78421774     0.66800
H492        H  0.18563768  0.37884107  0.71439630     0.15700
H493        H  0.12362360  0.28465953  0.78197051     0.15400
N494        N  0.09898515  0.30331366  0.71846172     0.74500
O495        O  0.16661273  0.41688032  0.78718323    -0.38900
O496        O  0.21798769  0.39474623  0.78648609    -0.38900
O497        O  0.07839602  0.28218332  0.73483396    -0.39600
O498        O  0.08619299  0.32742311  0.69887853    -0.39600
C499        C  0.22691858  0.35407782  0.85864057    -0.11900
C500        C  0.20942494  0.33124357  0.83365313     0.05100
C501        C  0.23147836  0.31121824  0.81208086    -0.07200
C502        C  0.26673821  0.31358038  0.81459571    -0.08000
C503        C  0.28529128  0.33386225  0.83865450    -0.02500
C504        C  0.26433783  0.35488709  0.86211705     0.04300
N505        N  0.27950058  0.37576992  0.89014049     0.66800
H506        H  0.21188610  0.37073827  0.87602496     0.15700
H507        H  0.28091410  0.29848963  0.79621724     0.15400
N508        N  0.21903498  0.29242025  0.78220864     0.74500
O509        O  0.26878594  0.40692070  0.89597872    -0.38900
O510        O  0.29794732  0.36073964  0.91348619    -0.38900
O511        O  0.20543546  0.26157214  0.78437719    -0.39600
O512        O  0.22012986  0.30887255  0.75296873    -0.39600
C513        C  0.17713912  0.12902289  0.77203426    -0.11900
C514        C  0.16868313  0.16022600  0.79155663     0.05100
C515        C  0.15428430  0.18744928  0.77000496    -0.07200
C516        C  0.16542725  0.19106023  0.73420069    -0.08000
C517        C  0.17427049  0.16088598  0.71307765    -0.02500
C518        C  0.17661901  0.12795872  0.73372413     0.04300
N519        N  0.18187796  0.09391816  0.71718984     0.66800
H520        H  0.18474314  0.10522726  0.78651029     0.15700
H521        H  0.16453861  0.21790197  0.72356326     0.15400
N522        N  0.11898758  0.19677418  0.77571551     0.74500
O523        O  0.21158967  0.08546520  0.70675612    -0.38900
O524        O  0.15962962  0.06922957  0.72229287    -0.38900
O525        O  0.10730580  0.22414860  0.76029264    -0.39600
O526        O  0.09773966  0.17315314  0.78705247    -0.39600
C527        C  0.23535402  0.18428727  0.81846320    -0.11900
C528        C  0.21708888  0.15736766  0.83567266     0.05100
C529        C  0.23803541  0.13039313  0.85222542    -0.07200
C530        C  0.27539908  0.13483529  0.85289411    -0.08000
C531        C  0.29319205  0.16507990  0.83692770    -0.02500
C532        C  0.26967915  0.19140969  0.82454890     0.04300
N533        N  0.27842224  0.22763568  0.81901517     0.66800
H534        H  0.22131034  0.20458980  0.80436469     0.15700
H535        H  0.28987502  0.11474877  0.86672495     0.15400
N536        N  0.22309394  0.09732341  0.86530255     0.74500
O537        O  0.26476316  0.24854237  0.84084870    -0.38900
O538        O  0.28420556  0.23854329  0.78754761    -0.38900
O539        O  0.20578866  0.07789695  0.84424790    -0.39600
O540        O  0.23387178  0.08363706  0.89417690    -0.39600
C541        C  0.13691934  0.22048536  0.84383003    -0.11900
C542        C  0.16913367  0.20368506  0.84870858     0.05100
C543        C  0.19351086  0.22687637  0.86659543    -0.07200
C544        C  0.19140937  0.26416976  0.86188950    -0.08000
C545        C  0.16402517  0.28129129  0.84385741    -0.02500
C546        C  0.13374548  0.25878580  0.84221270     0.04300
N547        N  0.09984040  0.27367141  0.84208887     0.66800
H548        H  0.11400597  0.20381145  0.84183920     0.15700
H549        H  0.21123533  0.27998048  0.87491543     0.15400
N550        N  0.21378629  0.21568695  0.89689939     0.74500
O551        O  0.09106406  0.29384421  0.86732833    -0.38900
O552        O  0.07648929  0.25971151  0.82300949    -0.38900
O553        O  0.24190851  0.19989963  0.89284872    -0.39600
O554        O  0.20850553  0.23051877  0.92667385    -0.39600
C555        C  0.12957371  0.11389383  0.83861440    -0.11900
C556        C  0.15449730  0.13605248  0.85596196     0.05100
C557        C  0.15549153  0.13327959  0.89420106    -0.07200
C558        C  0.13286675  0.11012206  0.91272891    -0.08000
C559        C  0.10823493  0.08966070  0.89496676    -0.02500
C560        C  0.10712458  0.09087113  0.85744692     0.04300
N561        N  0.08150165  0.07118677  0.83796568     0.66800
H562        H  0.12538731  0.11477144  0.81015649     0.15700
H563        H  0.13369493  0.10936651  0.94181080     0.15400
N564        N  0.17635147  0.15588113  0.91593489     0.74500
O565        O  0.05362271  0.08606880  0.82965751    -0.38900
O566        O  0.08948075  0.04227651  0.82305756    -0.38900
O567        O  0.16097289  0.17781181  0.93569529    -0.39600
O568        O  0.20512778  0.14443330  0.92621737    -0.39600
C569        C  0.12172305  0.36674434  0.58469434    -0.11900
C570        C  0.10321440  0.39404626  0.60085714     0.05100
C571        C  0.10766305  0.40000116  0.63773042    -0.07200
C572        C  0.12847772  0.37748359  0.65791367    -0.08000
C573        C  0.14620071  0.34849980  0.64268505    -0.02500
C574        C  0.14364234  0.34470058  0.60463704     0.04300
N575        N  0.16221901  0.31839887  0.58528423     0.66800
H576        H  0.11928889  0.36242402  0.55610877     0.15700
H577        H  0.12969044  0.38327898  0.68605870     0.15400
N578        N  0.09005808  0.42791150  0.65583655     0.74500
O579        O  0.14571502  0.29266815  0.57130420    -0.38900
O580        O  0.19197736  0.32632106  0.57347400    -0.38900
O581        O  0.06123308  0.42121089  0.67053634    -0.39600
O582        O  0.10604800  0.45671239  0.66296083    -0.39600
C583        C  0.39062102  0.16246635  0.62223953    -0.11900
C584        C  0.36671072  0.14716787  0.64695783     0.05100
C585        C  0.36648821  0.10906618  0.65126359    -0.07200
C586        C  0.38784679  0.08821755  0.62982391    -0.08000
C587        C  0.40950001  0.10391465  0.60373615    -0.02500
C588        C  0.41099887  0.14149327  0.60028454     0.04300
N589        N  0.43371767  0.15914699  0.57516428     0.66800
H590        H  0.39378293  0.19110039  0.61884659     0.15700
H591        H  0.38681255  0.05930441  0.63311880     0.15400
N592        N  0.34395151  0.09052071  0.67600971     0.74500
O593        O  0.42181751  0.17109643  0.54602091    -0.38900
O594        O  0.46343512  0.16908390  0.58507597    -0.38900
O595        O  0.31686678  0.07572610  0.66408422    -0.39600
O596        O  0.35630090  0.07873241  0.70500338    -0.39600
C597        C  0.13345593  0.11851712  0.58924918    -0.11900
C598        C  0.10826628  0.09718194  0.60636605     0.05100
C599        C  0.10726284  0.09816270  0.64410684    -0.07200
C600        C  0.13116671  0.11957434  0.66339241    -0.08000
C601        C  0.15867273  0.14000452  0.64704570    -0.02500
C602        C  0.15722436  0.14053958  0.60819012     0.04300
N603        N  0.17425532  0.16738941  0.58653341     0.66800
H604        H  0.13338829  0.11996589  0.56019099     0.15800
H605        H  0.12579197  0.12149534  0.69161551     0.15400
N606        N  0.08013168  0.08000253  0.66348820     0.74500
O607        O  0.19303270  0.15712132  0.56097926    -0.38900
O608        O  0.15918572  0.19686565  0.58253409    -0.38900
O609        O  0.08632751  0.05139969  0.68047335    -0.39600
O610        O  0.05194331  0.09558473  0.66865508    -0.39600
C611        C  0.37333461  0.41249881  0.87717854    -0.11900
C612        C  0.39417091  0.39514031  0.90226190     0.05100
C613        C  0.39262053  0.35758168  0.90454336    -0.07200
C614        C  0.37200242  0.33828597  0.88088657    -0.08000
C615        C  0.34903959  0.35488220  0.85661891    -0.02500
C616        C  0.35089311  0.39325262  0.85464576     0.04300
N617        N  0.33405176  0.41332793  0.82713763     0.66800
H618        H  0.37511849  0.44142108  0.87424754     0.15700
H619        H  0.37559321  0.30984050  0.88182091     0.15400
N620        N  0.41307353  0.33810594  0.92966902     0.74500
O621        O  0.35163140  0.42395277  0.80033042    -0.38900
O622        O  0.30674396  0.42956263  0.83460225    -0.38900
O623        O  0.40030113  0.32939305  0.95978848    -0.39600
O624        O  0.44034869  0.32342508  0.91921132    -0.39600
C625        C  0.37903384  0.08499205  0.87330448    -0.11900
C626        C  0.40167778  0.10093132  0.89806632     0.05100
C627        C  0.40129987  0.13844018  0.90121948    -0.07200
C628        C  0.37982431  0.15907070  0.87944888    -0.08000
C629        C  0.35675658  0.14396667  0.85401613    -0.02500
C630        C  0.35653902  0.10545111  0.85162378     0.04300
N631        N  0.33378791  0.08592573  0.82810895     0.66800
H632        H  0.37881843  0.05609796  0.87057810     0.15700
H633        H  0.38254522  0.18760268  0.88285287     0.15400
N634        N  0.42393234  0.15665947  0.92538618     0.74500
O635        O  0.31493851  0.06105082  0.84120136    -0.38900
O636        O  0.33964630  0.08570516  0.79484924    -0.38900
O637        O  0.45295660  0.16815397  0.91437399    -0.39600
O638        O  0.41262516  0.16667993  0.95536272    -0.39600
C639        C  0.12229203  0.36803708  0.91188240    -0.11900
C640        C  0.09909876  0.39095453  0.89469742     0.05100
C641        C  0.09903693  0.39194078  0.85700403    -0.07200
C642        C  0.12132854  0.37026486  0.83751287    -0.08000
C643        C  0.14571327  0.34736941  0.85401249    -0.02500
C644        C  0.14533691  0.34655112  0.89243282     0.04300
N645        N  0.16547907  0.32179355  0.91262782     0.66800
H646        H  0.12223283  0.36626946  0.94091686     0.15700
H647        H  0.11789548  0.37126260  0.80887275     0.15400
N648        N  0.07488596  0.41322877  0.83768154     0.74500
O649        O  0.19146585  0.33341880  0.92944682    -0.38900
O650        O  0.15117279  0.29291667  0.92334572    -0.38900
O651        O  0.08524929  0.44119771  0.82125545    -0.39600
O652        O  0.04500106  0.40077214  0.83168147    -0.39600
C653        C  0.38315799  0.41076169  0.63347175    -0.11900
C654        C  0.39206393  0.39742535  0.60009654     0.05100
C655        C  0.37443975  0.36637604  0.58819625    -0.07200
C656        C  0.35063789  0.34815287  0.61100693    -0.08000
C657        C  0.34400411  0.35930064  0.64661807    -0.02500
C658        C  0.35916068  0.39339988  0.65606539     0.04300
N659        N  0.34781355  0.41439196  0.68543203     0.66800
H660        H  0.39451207  0.43590172  0.64233315     0.15700
H661        H  0.33831334  0.32431502  0.60068807     0.15400
N662        N  0.38054652  0.35257787  0.55321839     0.74500
O663        O  0.36721460  0.41697812  0.71242795    -0.38900
O664        O  0.32920747  0.44080427  0.67778578    -0.38900
O665        O  0.40084180  0.32682373  0.54937584    -0.39600
O666        O  0.36105296  0.36139488  0.52770203    -0.39600
N667        N  0.46092246  0.95316689  0.06625127    -0.05800
N668        N  0.43585106  0.94689259  0.08970462    -0.57900
N669        N  0.03942111  0.92805498  0.04244017    -0.05500
N670        N  0.06242684  0.90342504  0.04992924    -0.60000
N671        N  0.03991048  0.95304613  0.06707136    -0.05100
N672        N  0.06317960  0.94596655  0.09164994    -0.57900
N673        N  0.46068902  0.92795355  0.04183555    -0.04700
N674        N  0.43546320  0.90426934  0.04816304    -0.60400
C675        C  0.41992645  0.91644824  0.07808404     0.96400
C676        C  0.07715697  0.91505976  0.08065443     0.96200
N677        N  0.03893147  0.95271636  0.43114806    -0.06000
N678        N  0.06175030  0.94560948  0.40585976    -0.58500
N679        N  0.45971674  0.92853176  0.45844075    -0.04100
N680        N  0.43548146  0.90417438  0.45218695    -0.59700
N681        N  0.45921506  0.95396815  0.43376807    -0.06000
N682        N  0.43468189  0.94736094  0.41015250    -0.58700
N683        N  0.03966823  0.92802782  0.45660852    -0.03700
N684        N  0.06298053  0.90366757  0.44903188    -0.59800
Mn685      Mn  0.49981312  0.92705639  0.50002243     1.18400
C686        C  0.07678240  0.91499180  0.41726595     0.98500
C687        C  0.41992337  0.91626798  0.42209512     0.99100
N688        N  0.04317364  0.53780700  0.06823657    -0.06000
N689        N  0.06519145  0.54540946  0.09437187    -0.62300
N690        N  0.46735864  0.56409933  0.04226027    -0.04800
N691        N  0.44667671  0.59054766  0.05004059    -0.63000
N692        N  0.46542224  0.53887159  0.06717813    -0.05500
N693        N  0.44337147  0.54778306  0.09250006    -0.62600
N694        N  0.04530572  0.56244345  0.04265508    -0.04400
N695        N  0.06906795  0.58707107  0.05106124    -0.63300
Mn696      Mn  0.00145903  0.49560968  0.06765724     1.10700
C697        C  0.08157620  0.57613856  0.08342127     0.99700
C698        C  0.43178082  0.58004400  0.08133876     0.99800
N699        N  0.46146255  0.53933863  0.43341749    -0.05500
N700        N  0.43765934  0.54739353  0.40935507    -0.60900
N701        N  0.04448065  0.56064444  0.45560689    -0.04800
N702        N  0.06976084  0.58344028  0.44750837    -0.57600
N703        N  0.04141102  0.53631251  0.43047075    -0.06200
N704        N  0.06442451  0.54198789  0.40486101    -0.60500
N705        N  0.46389417  0.56464377  0.45770001    -0.05100
N706        N  0.44173434  0.59029933  0.45036981    -0.57700
Mn707      Mn  0.50002337  0.99544306  0.43146511     1.20200
Mn708      Mn  0.00492935  0.56356481  0.99924273     1.10100
Cl709      Cl  0.00133614  0.49529693  0.99936886    -0.85600
C710        C  0.42528138  0.57926828  0.42022475     0.96700
C711        C  0.08199307  0.57130280  0.41592030     0.96500
C712        C  0.17655789  0.66491979  0.33304828    -0.02100
C713        C  0.16936956  0.82401776  0.33032240    -0.02100
C714        C  0.16699315  0.82299838  0.16693448    -0.02100
C715        C  0.18359972  0.66501848  0.16992148    -0.02100
C716        C  0.33450642  0.66956121  0.32865464    -0.02100
C717        C  0.34095177  0.67019890  0.16637467    -0.02100
C718        C  0.32485335  0.83209141  0.17256119    -0.02100
C719        C  0.32636259  0.83162419  0.33038159    -0.02100
C720        C  0.36259393  0.84156363  0.23180763    -0.11900
C721        C  0.33127651  0.84617399  0.21275457     0.05100
C722        C  0.30626978  0.86554318  0.23347819    -0.07200
C723        C  0.30716881  0.86405205  0.27102750    -0.08000
C724        C  0.33308942  0.84594167  0.29005952    -0.02500
C725        C  0.36419297  0.84343169  0.26996682     0.04300
N726        N  0.39693473  0.84169526  0.28748297     0.66800
H727        H  0.38642963  0.84051296  0.21750757     0.15700
H728        H  0.28632974  0.87655359  0.28522780     0.15400
N729        N  0.27949050  0.88671465  0.21832789     0.74500
O730        O  0.41633201  0.81548829  0.28203483    -0.38900
O731        O  0.40972962  0.86990219  0.30072272    -0.38900
O732        O  0.24927272  0.87403519  0.22006570    -0.39600
O733        O  0.28275321  0.92032278  0.22017837    -0.39600
C734        C  0.37141911  0.73479044  0.17223646    -0.11900
C735        C  0.34626515  0.71262261  0.15522298     0.05100
C736        C  0.32521140  0.73278638  0.13150198    -0.07200
C737        C  0.31799075  0.76954067  0.13926611    -0.08000
C738        C  0.33716932  0.79082990  0.16416647    -0.02500
C739        C  0.36873664  0.77325659  0.17411382     0.04300
N740        N  0.39968608  0.79294724  0.18176505     0.66800
H741        H  0.39322532  0.72200678  0.18471709     0.15700
H742        H  0.29859168  0.78247760  0.12318077     0.15400
N743        N  0.31758780  0.71983686  0.09614895     0.74500
O744        O  0.41936707  0.78233046  0.20645551    -0.38900
O745        O  0.41097167  0.81592366  0.15931971    -0.38900
O746        O  0.29638965  0.73622340  0.07659808    -0.39600
O747        O  0.33891712  0.69988177  0.08087931    -0.39600
C748        C  0.31781226  0.67270648  0.26359381    -0.11900
C749        C  0.34255419  0.66122295  0.28711002     0.05100
C750        C  0.37339994  0.64909984  0.26841726    -0.07200
C751        C  0.37471605  0.64975423  0.22909866    -0.08000
C752        C  0.34889829  0.66793239  0.20864382    -0.02500
C753        C  0.32554579  0.68464814  0.23021689     0.04300
N754        N  0.31159096  0.71699037  0.22024492     0.66800
H755        H  0.29268478  0.67814499  0.27030946     0.15700
H756        H  0.39626844  0.63786982  0.21540723     0.15400
N757        N  0.40228135  0.63492752  0.28741451     0.74500
O758        O  0.28986822  0.71796112  0.19544866    -0.38900
O759        O  0.32869757  0.74432540  0.22908506    -0.38900
O760        O  0.40942414  0.60230689  0.28380315    -0.39600
O761        O  0.42573810  0.65600063  0.29806635    -0.39600
C762        C  0.33170981  0.72955904  0.36607270    -0.11900
C763        C  0.34418586  0.71109870  0.33557318     0.05100
C764        C  0.35979270  0.73375102  0.30928308    -0.07200
C765        C  0.35129237  0.77010580  0.30670994    -0.08000
C766        C  0.33514724  0.78929870  0.33454619    -0.02500
C767        C  0.32767631  0.76769730  0.36618155     0.04300
N768        N  0.31298295  0.78295740  0.39770616     0.66800
H769        H  0.32148092  0.71400322  0.38854739     0.15700
H770        H  0.35884017  0.78208935  0.28193002     0.15400
N771        N  0.39074829  0.72351133  0.29160652     0.74500
O772        O  0.28059462  0.78425786  0.40063431    -0.38900
O773        O  0.33078879  0.78383314  0.42594696    -0.38900
O774        O  0.39320436  0.72721544  0.25802513    -0.39600
O775        O  0.41812144  0.72418358  0.30981201    -0.39600
C776        C  0.24249835  0.65043514  0.13268719    -0.11900
C777        C  0.22488590  0.65552241  0.16608344     0.05100
C778        C  0.24819423  0.64950800  0.19563152    -0.07200
C779        C  0.28269839  0.64023341  0.18988740    -0.08000
C780        C  0.30122938  0.65460437  0.16049133    -0.02500
C781        C  0.27992211  0.65229886  0.12905118     0.04300
N782        N  0.29449736  0.64444333  0.09468299     0.66800
H783        H  0.22775302  0.64647228  0.10898845     0.15700
H784        H  0.29623800  0.62841038  0.21215514     0.15400
N785        N  0.24053754  0.65715810  0.23197068     0.74500
O786        O  0.27949202  0.65479269  0.06651482    -0.38900
O787        O  0.31655532  0.62014325  0.09221109    -0.38900
O788        O  0.24772271  0.63434130  0.25602118    -0.39600
O789        O  0.23708065  0.68945395  0.24048161    -0.39600
C790        C  0.18833942  0.76556918  0.13463060    -0.11900
C791        C  0.16151600  0.78154947  0.15418013     0.05100
C792        C  0.13386725  0.75646611  0.16139288    -0.07200
C793        C  0.14102136  0.71882641  0.16338422    -0.08000
C794        C  0.17474817  0.70509001  0.15753649    -0.02500
C795        C  0.19668093  0.72957645  0.13861979     0.04300
N796        N  0.22780045  0.71985826  0.12214535     0.66800
H797        H  0.20694089  0.78200117  0.11994372     0.15700
H798        H  0.12048450  0.70020627  0.17111136     0.15400
N799        N  0.09849986  0.76651879  0.15772532     0.74500
O800        O  0.22905969  0.71846916  0.08837227    -0.38900
O801        O  0.25485529  0.72761219  0.13878963    -0.38900
O802        O  0.09043131  0.78963838  0.13441202    -0.39600
O803        O  0.07483825  0.74707585  0.17155624    -0.39600
C804        C  0.22645929  0.80615590  0.18257094    -0.11900
C805        C  0.20769173  0.83094938  0.16365959     0.05100
C806        C  0.22807969  0.85697057  0.14394316    -0.07200
C807        C  0.26539374  0.85587752  0.14468217    -0.08000
C808        C  0.28370337  0.83143187  0.16726345    -0.02500
C809        C  0.26190492  0.80652841  0.18689789     0.04300
N810        N  0.27323750  0.78336330  0.21510944     0.66800
H811        H  0.21155675  0.78534865  0.19619028     0.15700
H812        H  0.27980312  0.87615023  0.12964798     0.15400
N813        N  0.21230536  0.88614049  0.12553152     0.74500
O814        O  0.25354590  0.75801908  0.22577357    -0.38900
O815        O  0.29403758  0.79529631  0.23756291    -0.38900
O816        O  0.20126721  0.91201168  0.14352799    -0.39600
O817        O  0.21762006  0.89056600  0.09235083    -0.39600
C818        C  0.17429813  0.85777579  0.22850198    -0.11900
C819        C  0.15843204  0.82910755  0.20925893     0.05100
C820        C  0.13377399  0.80970245  0.23060246    -0.07200
C821        C  0.13893726  0.80649596  0.26834774    -0.08000
C822        C  0.16024741  0.83026714  0.28817743    -0.02500
C823        C  0.17400119  0.85964982  0.26681957     0.04300
N824        N  0.18915683  0.89076974  0.28304322     0.66800
H825        H  0.18743994  0.87894788  0.21353999     0.15700
H826        H  0.12239189  0.78819031  0.28219824     0.15400
N827        N  0.09877188  0.80569471  0.21832903     0.74500
O828        O  0.17216681  0.91929766  0.28347409    -0.38900
O829        O  0.22146142  0.89299354  0.28647408    -0.38900
O830        O  0.07730874  0.78673496  0.23610889    -0.39600
O831        O  0.08700408  0.82848693  0.19655554    -0.39600
C832        C  0.22774803  0.85412855  0.35875912    -0.11900
C833        C  0.20997534  0.83181494  0.33351885     0.05100
C834        C  0.23165780  0.81167889  0.31167100    -0.07200
C835        C  0.26695643  0.81406175  0.31368503    -0.08000
C836        C  0.28576717  0.83412922  0.33775525    -0.02500
C837        C  0.26514045  0.85482409  0.36181050     0.04300
N838        N  0.28058240  0.87521509  0.39004896     0.66800
H839        H  0.21293590  0.87035665  0.37677855     0.15700
H840        H  0.28088910  0.79890609  0.29509884     0.15400
N841        N  0.21877710  0.79274820  0.28204861     0.74500
O842        O  0.27000811  0.90630588  0.39644590    -0.38900
O843        O  0.29901897  0.85974217  0.41310553    -0.38900
O844        O  0.20457031  0.76221697  0.28457972    -0.39600
O845        O  0.22051040  0.80862628  0.25253804    -0.39600
C846        C  0.17633549  0.62991897  0.27141290    -0.11900
C847        C  0.16833430  0.66140007  0.29074070     0.05100
C848        C  0.15487048  0.68897784  0.26890491    -0.07200
C849        C  0.16616174  0.69190630  0.23312067    -0.08000
C850        C  0.17399132  0.66130204  0.21213134    -0.02500
C851        C  0.17570913  0.62849997  0.23309419     0.04300
N852        N  0.18025328  0.59414662  0.21692939     0.66800
H853        H  0.18357072  0.60610229  0.28611613     0.15700
H854        H  0.16638961  0.71876982  0.22240305     0.15400
N855        N  0.12003878  0.69999045  0.27449364     0.74500
O856        O  0.20938253  0.58551425  0.20498732    -0.38900
O857        O  0.15810164  0.56961491  0.22319062    -0.38900
O858        O  0.10950544  0.72767322  0.25862644    -0.39600
O859        O  0.09785369  0.67732300  0.28584593    -0.39600
C860        C  0.23520869  0.68481024  0.31736126    -0.11900
C861        C  0.21674537  0.65824223  0.33484704     0.05100
C862        C  0.23744891  0.63131140  0.35171857    -0.07200
C863        C  0.27486767  0.63531210  0.35226614    -0.08000
C864        C  0.29288324  0.66541286  0.33623288    -0.02500
C865        C  0.26952416  0.69179281  0.32363055     0.04300
N866        N  0.27845866  0.72788564  0.31785295     0.66800
H867        H  0.22134313  0.70507776  0.30301237     0.15700
H868        H  0.28918044  0.61507045  0.36607819     0.15400
N869        N  0.22212933  0.59858106  0.36500286     0.74500
O870        O  0.26473781  0.74900632  0.33942630    -0.38900
O871        O  0.28447807  0.73847101  0.28633792    -0.38900
O872        O  0.20778936  0.57747012  0.34321434    -0.39600
O873        O  0.23033558  0.58681507  0.39560339    -0.39600
C874        C  0.13701099  0.72144041  0.34340723    -0.11900
C875        C  0.16927750  0.70491982  0.34793007     0.05100
C876        C  0.19357132  0.72810554  0.36590770    -0.07200
C877        C  0.19093751  0.76540421  0.36177511    -0.08000
C878        C  0.16358696  0.78263501  0.34363366    -0.02500
C879        C  0.13326790  0.75972465  0.34150163     0.04300
N880        N  0.09878408  0.77350892  0.33873994     0.66800
H881        H  0.11447238  0.70425544  0.34141063     0.15700
H882        H  0.21069107  0.78113130  0.37499139     0.15400
N883        N  0.21428878  0.71683158  0.39591573     0.74500
O884        O  0.07444961  0.75374007  0.32747208    -0.38900
O885        O  0.09161024  0.80404989  0.35036112    -0.38900
O886        O  0.24183946  0.70009994  0.39161612    -0.39600
O887        O  0.20972701  0.73179291  0.42575882    -0.39600
C888        C  0.12927766  0.61503627  0.33796718    -0.11900
C889        C  0.15402669  0.63745858  0.35524275     0.05100
C890        C  0.15468452  0.63516223  0.39350039    -0.07200
C891        C  0.13230157  0.61182944  0.41211736    -0.08000
C892        C  0.10820092  0.59063375  0.39440036    -0.02500
C893        C  0.10730416  0.59153379  0.35684994     0.04300
N894        N  0.08257394  0.57069886  0.33732617     0.66800
H895        H  0.12488317  0.61600815  0.30954033     0.15700
H896        H  0.13284139  0.61157202  0.44121001     0.15400
N897        N  0.17448749  0.65884305  0.41509891     0.74500
O898        O  0.05461467  0.58466679  0.32777243    -0.38900
O899        O  0.09151523  0.54149934  0.32363227    -0.38900
O900        O  0.15825897  0.68215984  0.43235628    -0.39600
O901        O  0.20244475  0.64771779  0.42792117    -0.39600
C902        C  0.11956540  0.86622059  0.08545255    -0.11900
C903        C  0.10228326  0.89431493  0.10172184     0.05100
C904        C  0.10838687  0.90112624  0.13815899    -0.07200
C905        C  0.12985878  0.87884164  0.15783747    -0.08000
C906        C  0.14616646  0.84890679  0.14262531    -0.02500
C907        C  0.14179393  0.84413714  0.10489296     0.04300
N908        N  0.15883632  0.81688206  0.08533024     0.66800
H909        H  0.11584287  0.86120403  0.05714073     0.15700
H910        H  0.13243215  0.88540463  0.18568944     0.15400
N911        N  0.09167343  0.92951992  0.15644889     0.74500
O912        O  0.14108221  0.79137001  0.07258563    -0.38900
O913        O  0.18820550  0.82377602  0.07197689    -0.38900
O914        O  0.06407741  0.92296210  0.17357811    -0.39600
O915        O  0.10781434  0.95870131  0.16148945    -0.39600
C916        C  0.39015267  0.66158270  0.12128913    -0.11900
C917        C  0.36638811  0.64625076  0.14612600     0.05100
C918        C  0.36649631  0.60817705  0.15066221    -0.07200
C919        C  0.38812847  0.58737425  0.12944906    -0.08000
C920        C  0.40957364  0.60306730  0.10317229    -0.02500
C921        C  0.41055879  0.64063479  0.09932221     0.04300
N922        N  0.43251850  0.65831548  0.07350894     0.66800
H923        H  0.39302706  0.69021604  0.11766385     0.15700
H924        H  0.38746152  0.55849094  0.13306210     0.15400
N925        N  0.34416487  0.58960811  0.17557347     0.74500
O926        O  0.42049189  0.66691086  0.04327163    -0.38900
O927        O  0.46104000  0.67165784  0.08334114    -0.38900
O928        O  0.31726426  0.57435440  0.16376689    -0.39600
O929        O  0.35663862  0.57827240  0.20468963    -0.39600
C930        C  0.13264330  0.61885606  0.08820387    -0.11900
C931        C  0.10793570  0.59689551  0.10535505     0.05100
C932        C  0.10716252  0.59770454  0.14311370    -0.07200
C933        C  0.13075678  0.61954808  0.16235993    -0.08000
C934        C  0.15804110  0.64024906  0.14599318    -0.02500
C935        C  0.15628867  0.64106921  0.10714502     0.04300
N936        N  0.17278092  0.66838571  0.08561162     0.66800
H937        H  0.13230255  0.62058569  0.05916152     0.15800
H938        H  0.12542083  0.62142947  0.19058238     0.15400
N939        N  0.08066997  0.57866183  0.16260131     0.74500
O940        O  0.19146632  0.65868219  0.05975586    -0.38900
O941        O  0.15734994  0.69772261  0.08215032    -0.38900
O942        O  0.08679942  0.54827748  0.17610269    -0.39600
O943        O  0.05339610  0.59448778  0.17117383    -0.39600
C944        C  0.37337923  0.91262376  0.37633495    -0.11900
C945        C  0.39429364  0.89527075  0.40136701     0.05100
C946        C  0.39301074  0.85769406  0.40341925    -0.07200
C947        C  0.37244481  0.83836710  0.37972969    -0.08000
C948        C  0.34941168  0.85495970  0.35555297    -0.02500
C949        C  0.35103636  0.89333370  0.35373121     0.04300
N950        N  0.33386002  0.91338561  0.32642913     0.66800
H951        H  0.37494391  0.94157130  0.37358768     0.15700
H952        H  0.37608403  0.80991373  0.38055196     0.15400
N953        N  0.41374498  0.83825312  0.42830199     0.74500
O954        O  0.35120500  0.92450580  0.29965050    -0.38900
O955        O  0.30618482  0.92891612  0.33398173    -0.38900
O956        O  0.40079211  0.82799772  0.45787772    -0.39600
O957        O  0.44190633  0.82532221  0.41798355    -0.39600
C958        C  0.37853327  0.58543045  0.37345366    -0.11900
C959        C  0.40043463  0.60145674  0.39890803     0.05100
C960        C  0.39952095  0.63893064  0.40224659    -0.07200
C961        C  0.37876720  0.65946193  0.37958808    -0.08000
C962        C  0.35635172  0.64424727  0.35357879    -0.02500
C963        C  0.35631976  0.60576166  0.35131038     0.04300
N964        N  0.33403753  0.58616470  0.32740499     0.66800
H965        H  0.37861858  0.55655680  0.37059555     0.15700
H966        H  0.38126060  0.68798399  0.38309387     0.15400
N967        N  0.42051879  0.65719949  0.42789829     0.74500
O968        O  0.31430677  0.56197402  0.34036703    -0.38900
O969        O  0.34136229  0.58471858  0.29450335    -0.38900
O970        O  0.44844215  0.67220582  0.41794126    -0.39600
O971        O  0.40817526  0.66405510  0.45838431    -0.39600
C972        C  0.12297381  0.86861831  0.41249407    -0.11900
C973        C  0.10217626  0.89421357  0.39575950     0.05100
C974        C  0.10467542  0.89813815  0.35826357    -0.07200
C975        C  0.12625544  0.87598651  0.33843642    -0.08000
C976        C  0.14769773  0.84986069  0.35448616    -0.02500
C977        C  0.14561497  0.84691184  0.39280555     0.04300
N978        N  0.16368015  0.82008113  0.41246817     0.66800
H979        H  0.12130000  0.86488728  0.44132467     0.15700
H980        H  0.12435058  0.87905418  0.30980704     0.15400
N981        N  0.08380859  0.92311435  0.33921818     0.74500
O982        O  0.19116645  0.82877443  0.42842838    -0.38900
O983        O  0.14712518  0.79248353  0.42315274    -0.38900
O984        O  0.09697625  0.95243368  0.32820385    -0.39600
O985        O  0.05445237  0.91333573  0.32809057    -0.39600
C986        C  0.38420931  0.90969263  0.13266357    -0.11900
C987        C  0.39223389  0.89692599  0.09885841     0.05100
C988        C  0.37403638  0.86629395  0.08677159    -0.07200
C989        C  0.35065989  0.84776543  0.10988864    -0.08000
C990        C  0.34459992  0.85857900  0.14573194    -0.02500
C991        C  0.36032171  0.89239366  0.15536126     0.04300
N992        N  0.34961002  0.91338514  0.18499891     0.66800
H993        H  0.39606288  0.93449911  0.14176943     0.15700
H994        H  0.33788815  0.82420704  0.09949079     0.15400
N995        N  0.37868878  0.85362899  0.05110373     0.74500
O996        O  0.36946164  0.91566452  0.21166589    -0.38900
O997        O  0.33136764  0.94015732  0.17766933    -0.38900
O998        O  0.39616695  0.82595625  0.04585505    -0.39600
O999        O  0.36031345  0.86591913  0.02612444    -0.39600
N1000       N  0.46017980  0.95350067  0.56655866    -0.05800
N1001       N  0.43507086  0.94722730  0.58996280    -0.57900
N1002       N  0.04003764  0.92854918  0.54221349    -0.05500
N1003       N  0.06341584  0.90425363  0.54957548    -0.60000
N1004       N  0.04014080  0.95338365  0.56699990    -0.05100
N1005       N  0.06350893  0.94654998  0.59154081    -0.57900
N1006       N  0.45998055  0.92831186  0.54212393    -0.04700
N1007       N  0.43473629  0.90463471  0.54838860    -0.60400
C1008       C  0.41916079  0.91679614  0.57829896     0.96400
C1009       C  0.07795988  0.91595105  0.58037923     0.96200
N1010       N  0.03848223  0.95186041  0.93133589    -0.06000
N1011       N  0.06138432  0.94465409  0.90617099    -0.58500
N1012       N  0.46012335  0.92794863  0.95826893    -0.04100
N1013       N  0.43572280  0.90369888  0.95230574    -0.59700
N1014       N  0.45951271  0.95333553  0.93357404    -0.06000
N1015       N  0.43475208  0.94682678  0.91020490    -0.58700
N1016       N  0.03903545  0.92720755  0.95683761    -0.03700
N1017       N  0.06232171  0.90275668  0.94938682    -0.59800
Mn1018     Mn  0.50038558  0.92664501  0.99960343     1.18400
C1019       C  0.07629684  0.91400787  0.91765630     0.98500
C1020       C  0.41996793  0.91583269  0.92234386     0.99100
N1021       N  0.04478911  0.53783372  0.56816880    -0.06000
N1022       N  0.06661345  0.54551817  0.59445480    -0.62300
N1023       N  0.46628360  0.56460379  0.54308721    -0.04800
N1024       N  0.44586315  0.59112144  0.55144149    -0.63000
N1025       N  0.46473236  0.53931468  0.56797563    -0.05500
N1026       N  0.44319834  0.54819361  0.59378472    -0.62600
N1027       N  0.04687571  0.56259272  0.54268113    -0.04400
N1028       N  0.07039819  0.58737721  0.55132985    -0.63300
Mn1029     Mn  0.00312180  0.49554058  0.56757008     1.10700
C1030       C  0.08280897  0.57642154  0.58371341     0.99700
C1031       C  0.43153626  0.58052494  0.58301972     0.99800
N1032       N  0.46290281  0.53903681  0.93292457    -0.05500
N1033       N  0.43890225  0.54713090  0.90906751    -0.60900
N1034       N  0.04305513  0.55979370  0.95573732    -0.04800
N1035       N  0.06826087  0.58267053  0.94771045    -0.57600
N1036       N  0.04022257  0.53531072  0.93069426    -0.06200
N1037       N  0.06333139  0.54102747  0.90517786    -0.60500
N1038       N  0.46546977  0.56428214  0.95724554    -0.05100
N1039       N  0.44320090  0.58990130  0.95020732    -0.57700
Mn1040     Mn  0.50028492  0.99471625  0.93104317     1.20200
Mn1041     Mn  0.00644017  0.56400101  0.49931844     1.10100
Cl1042     Cl  0.00283753  0.49569393  0.49926510    -0.85600
C1043       C  0.42655780  0.57896817  0.92015314     0.96700
C1044       C  0.08067780  0.57049283  0.91625574     0.96500
C1045       C  0.17613646  0.66388310  0.83445804    -0.02100
C1046       C  0.16894330  0.82303789  0.83053481    -0.02100
C1047       C  0.16692866  0.82332965  0.66691043    -0.02100
C1048       C  0.18333122  0.66562183  0.67158678    -0.02100
C1049       C  0.33423796  0.66938754  0.83045613    -0.02100
C1050       C  0.34099988  0.67069840  0.66829594    -0.02100
C1051       C  0.32455938  0.83236048  0.67309152    -0.02100
C1052       C  0.32606623  0.83132281  0.83100507    -0.02100
C1053       C  0.36224931  0.84144202  0.73231591    -0.11900
C1054       C  0.33097640  0.84636159  0.71329526     0.05100
C1055       C  0.30595415  0.86558781  0.73416704    -0.07200
C1056       C  0.30688310  0.86384411  0.77171465    -0.08000
C1057       C  0.33278036  0.84554284  0.79063697    -0.02500
C1058       C  0.36385585  0.84299984  0.77047925     0.04300
N1059       N  0.39665903  0.84140458  0.78790103     0.66800
H1060       H  0.38606354  0.84025590  0.71800234     0.15700
H1061       H  0.28601865  0.87625304  0.78598762     0.15400
N1062       N  0.27881414  0.88640659  0.71920211     0.74500
O1063       O  0.41606185  0.81518754  0.78250924    -0.38900
O1064       O  0.40958532  0.86980954  0.80059034    -0.38900
O1065       O  0.24866521  0.87360729  0.72165985    -0.39600
O1066       O  0.28197001  0.92005567  0.72041935    -0.39600
C1067       C  0.37150254  0.73540903  0.67341873    -0.11900
C1068       C  0.34637331  0.71298138  0.65669737     0.05100
C1069       C  0.32525141  0.73278987  0.63276580    -0.07200
C1070       C  0.31783531  0.76957109  0.64018688    -0.08000
C1071       C  0.33699707  0.79114125  0.66484127    -0.02500
C1072       C  0.36877388  0.77389625  0.67463145     0.04300
N1073       N  0.39987656  0.79386095  0.68100852     0.66800
H1074       H  0.39336025  0.72284703  0.68603385     0.15700
H1075       H  0.29832992  0.78227384  0.62404674     0.15400
N1076       N  0.31778075  0.71941029  0.59756072     0.74500
O1077       O  0.42051694  0.78348726  0.70493334    -0.38900
O1078       O  0.41020209  0.81684981  0.65809903    -0.38900
O1079       O  0.29695381  0.73578678  0.57757042    -0.39600
O1080       O  0.33901835  0.69896196  0.58281635    -0.39600
C1081       C  0.31838688  0.67402186  0.76541112    -0.11900
C1082       C  0.34243877  0.66126111  0.78892363     0.05100
C1083       C  0.37300307  0.64834675  0.77023011    -0.07200
C1084       C  0.37440046  0.64924247  0.73090109    -0.08000
C1085       C  0.34929174  0.66856035  0.71053353    -0.02500
C1086       C  0.32677836  0.68621276  0.73234302     0.04300
N1087       N  0.31302770  0.71857464  0.72229979     0.66800
H1088       H  0.29303110  0.67977725  0.77195813     0.15700
H1089       H  0.39549385  0.63658508  0.71714977     0.15400
N1090       N  0.40137179  0.63304896  0.78916831     0.74500
O1091       O  0.29128854  0.71938388  0.69757055    -0.38900
O1092       O  0.33000396  0.74599222  0.73120078    -0.38900
O1093       O  0.40930633  0.60101285  0.78316416    -0.39600
O1094       O  0.42355215  0.65334325  0.80348501    -0.39600
C1095       C  0.33131447  0.72961438  0.86762380    -0.11900
C1096       C  0.34392442  0.71093502  0.83734174     0.05100
C1097       C  0.35991994  0.73338129  0.81110685    -0.07200
C1098       C  0.35136953  0.76970467  0.80806193    -0.08000
C1099       C  0.33485588  0.78904932  0.83551919    -0.02500
C1100       C  0.32734169  0.76776988  0.86736516     0.04300
N1101       N  0.31285856  0.78343875  0.89879012     0.66800
H1102       H  0.32098887  0.71424855  0.89017883     0.15700
H1103       H  0.35937609  0.78166715  0.78343670     0.15400
N1104       N  0.39112501  0.72290114  0.79399229     0.74500
O1105       O  0.28049006  0.78447119  0.90211810    -0.38900
O1106       O  0.33102232  0.78515005  0.92674524    -0.38900
O1107       O  0.39454474  0.72730073  0.76056025    -0.39600
O1108       O  0.41800197  0.72227480  0.81295869    -0.39600
C1109       C  0.24237534  0.65034967  0.63501756    -0.11900
C1110       C  0.22467644  0.65633948  0.66818355     0.05100
C1111       C  0.24796298  0.65146252  0.69793232    -0.07200
C1112       C  0.28250182  0.64210515  0.69257711    -0.08000
C1113       C  0.30111707  0.65543551  0.66280413    -0.02500
C1114       C  0.27979176  0.65232798  0.63140953     0.04300
N1115       N  0.29433827  0.64382449  0.59721530     0.66800
H1116       H  0.22769668  0.64547653  0.61143760     0.15700
H1117       H  0.29590908  0.63051892  0.71503184     0.15400
N1118       N  0.23995018  0.65947187  0.73409151     0.74500
O1119       O  0.27968426  0.65437533  0.56892050    -0.38900
O1120       O  0.31538068  0.61854536  0.59505245    -0.38900
O1121       O  0.24759528  0.63719172  0.75847095    -0.39600
O1122       O  0.23537614  0.69171101  0.74214557    -0.39600
C1123       C  0.18847634  0.76579658  0.63485087    -0.11900
C1124       C  0.16142449  0.78202806  0.65370896     0.05100
C1125       C  0.13356745  0.75709098  0.66034747    -0.07200
C1126       C  0.14078149  0.71952869  0.66371978    -0.08000
C1127       C  0.17468633  0.70576191  0.65909666    -0.02500
C1128       C  0.19691315  0.72995279  0.64005932     0.04300
N1129       N  0.22839145  0.72000098  0.62454056     0.66800
H1130       H  0.20731598  0.78201538  0.62026397     0.15700
H1131       H  0.12002786  0.70099389  0.67100333     0.15400
N1132       N  0.09848787  0.76685938  0.65370976     0.74500
O1133       O  0.23048484  0.71829660  0.59083357    -0.38900
O1134       O  0.25504756  0.72768481  0.64187730    -0.38900
O1135       O  0.09197722  0.78940103  0.62928128    -0.39600
O1136       O  0.07397470  0.74774067  0.66630606    -0.39600
C1137       C  0.22622005  0.80652673  0.68279113    -0.11900
C1138       C  0.20756143  0.83141734  0.66393362     0.05100
C1139       C  0.22798174  0.85787127  0.64482334    -0.07200
C1140       C  0.26526389  0.85656641  0.64546834    -0.08000
C1141       C  0.28346692  0.83176882  0.66773719    -0.02500
C1142       C  0.26160779  0.80684631  0.68722858     0.04300
N1143       N  0.27279197  0.78367682  0.71547220     0.66800
H1144       H  0.21126375  0.78565537  0.69623891     0.15700
H1145       H  0.27974333  0.87707840  0.63083886     0.15400
N1146       N  0.21233196  0.88781003  0.62751011     0.74500
O1147       O  0.25304924  0.75833930  0.72601211    -0.38900
O1148       O  0.29336812  0.79564380  0.73808629    -0.38900
O1149       O  0.19909159  0.91173728  0.64655063    -0.39600
O1150       O  0.21965912  0.89504635  0.59518815    -0.39600
C1151       C  0.17339881  0.85767890  0.72880097    -0.11900
C1152       C  0.15825048  0.82885865  0.70923172     0.05100
C1153       C  0.13457000  0.80803425  0.73030317    -0.07200
C1154       C  0.13980189  0.80457702  0.76800403    -0.08000
C1155       C  0.15983802  0.82927450  0.78830529    -0.02500
C1156       C  0.17299341  0.85916949  0.76715019     0.04300
N1157       N  0.18772098  0.89042128  0.78355252     0.66800
H1158       H  0.18623963  0.87922475  0.71407751     0.15700
H1159       H  0.12488960  0.78432732  0.78122976     0.15400
N1160       N  0.09995442  0.80216964  0.71760976     0.74500
O1161       O  0.17089799  0.91906746  0.78279024    -0.38900
O1162       O  0.21991719  0.89258557  0.78794884    -0.38900
O1163       O  0.07939700  0.78165102  0.73477312    -0.39600
O1164       O  0.08715384  0.82468112  0.69618980    -0.39600
C1165       C  0.22720698  0.85349973  0.85895122    -0.11900
C1166       C  0.20956535  0.83089172  0.83384375     0.05100
C1167       C  0.23140272  0.81084467  0.81210354    -0.07200
C1168       C  0.26671447  0.81345257  0.81422802    -0.08000
C1169       C  0.28540395  0.83370748  0.83826913    -0.02500
C1170       C  0.26460446  0.85449294  0.86205775     0.04300
N1171       N  0.27989493  0.87549355  0.88992864     0.66800
H1172       H  0.21228622  0.86988062  0.87672894     0.15700
H1173       H  0.28081434  0.79848151  0.79569359     0.15400
N1174       N  0.21866252  0.79189122  0.78243194     0.74500
O1175       O  0.26905356  0.90658644  0.89581661    -0.38900
O1176       O  0.29858751  0.86061792  0.91315301    -0.38900
O1177       O  0.20458933  0.76129532  0.78498064    -0.39600
O1178       O  0.21960524  0.80811124  0.75305621    -0.39600
C1179       C  0.17692521  0.62935875  0.77250609    -0.11900
C1180       C  0.16809507  0.66037365  0.79212950     0.05100
C1181       C  0.15273205  0.68714920  0.77075820    -0.07200
C1182       C  0.16343439  0.69113418  0.73482089    -0.08000
C1183       C  0.17325415  0.66131012  0.71362410    -0.02500
C1184       C  0.17612835  0.62836852  0.73417904     0.04300
N1185       N  0.18170341  0.59446332  0.71750543     0.66800
H1186       H  0.18504604  0.60569539  0.78694412     0.15700
H1187       H  0.16147049  0.71789167  0.72425865     0.15400
N1188       N  0.11718971  0.69524118  0.77688719     0.74500
O1189       O  0.21170164  0.58590431  0.70811080    -0.38900
O1190       O  0.15926875  0.56982580  0.72186823    -0.38900
O1191       O  0.10494783  0.72346132  0.76369804    -0.39600
O1192       O  0.09645157  0.67060978  0.78700941    -0.39600
C1193       C  0.23477117  0.68439221  0.81926099    -0.11900
C1194       C  0.21642481  0.65761065  0.83658696     0.05100
C1195       C  0.23729550  0.63092743  0.85368306    -0.07200
C1196       C  0.27469871  0.63517466  0.85422266    -0.08000
C1197       C  0.29258957  0.66518574  0.83790501    -0.02500
C1198       C  0.26912092  0.69149206  0.82532114     0.04300
N1199       N  0.27790692  0.72768780  0.81956595     0.66800
H1200       H  0.22076782  0.70460914  0.80502604     0.15700
H1201       H  0.28914165  0.61516738  0.86823944     0.15400
N1202       N  0.22216974  0.59832241  0.86756553     0.74500
O1203       O  0.26431401  0.74869972  0.84135245    -0.38900
O1204       O  0.28346199  0.73843366  0.78799368    -0.38900
O1205       O  0.20615654  0.57767239  0.84657541    -0.39600
O1206       O  0.23168977  0.58622984  0.89761491    -0.39600
C1207       C  0.13622639  0.72041316  0.84421107    -0.11900
C1208       C  0.16842469  0.70389000  0.84920092     0.05100
C1209       C  0.19255290  0.72723607  0.86707482    -0.07200
C1210       C  0.19019397  0.76448889  0.86228193    -0.08000
C1211       C  0.16295965  0.78164435  0.84383168    -0.02500
C1212       C  0.13248899  0.75876164  0.84182846     0.04300
N1213       N  0.09793840  0.77250206  0.83832972     0.66800
H1214       H  0.11380689  0.70308828  0.84188019     0.15700
H1215       H  0.20997211  0.78025987  0.87540497     0.15400
N1216       N  0.21283048  0.71618165  0.89745243     0.74500
O1217       O  0.07230855  0.75117962  0.83684367    -0.38900
O1218       O  0.09233173  0.80562730  0.83756076    -0.38900
O1219       O  0.24092611  0.70031179  0.89354364    -0.39600
O1220       O  0.20738151  0.73091877  0.92724147    -0.39600
C1221       C  0.12922721  0.61354778  0.83881792    -0.11900
C1222       C  0.15366423  0.63614477  0.85638732     0.05100
C1223       C  0.15392920  0.63383774  0.89464083    -0.07200
C1224       C  0.13138076  0.61045838  0.91298150    -0.08000
C1225       C  0.10703234  0.58979634  0.89500019    -0.02500
C1226       C  0.10627471  0.59091792  0.85747795     0.04300
N1227       N  0.08021649  0.57200574  0.83783319     0.66800
H1228       H  0.12554565  0.61401476  0.81029476     0.15700
H1229       H  0.13179093  0.60997746  0.94207724     0.15400
N1230       N  0.17344418  0.65757065  0.91646410     0.74500
O1231       O  0.05128983  0.58623685  0.83296645    -0.38900
O1232       O  0.08826935  0.54508731  0.81962166    -0.38900
O1233       O  0.15691463  0.68052433  0.93389979    -0.39600
O1234       O  0.20153482  0.64672256  0.92921006    -0.39600
C1235       C  0.12139310  0.86804939  0.58516573    -0.11900
C1236       C  0.10299007  0.89526250  0.60162300     0.05100
C1237       C  0.10768723  0.90106710  0.63847429    -0.07200
C1238       C  0.12844982  0.87827606  0.65840160    -0.08000
C1239       C  0.14615299  0.84941544  0.64281999    -0.02500
C1240       C  0.14344810  0.84590435  0.60478667     0.04300
N1241       N  0.16196152  0.81973925  0.58515323     0.66800
H1242       H  0.11877370  0.86388064  0.55657517     0.15700
H1243       H  0.12968075  0.88381128  0.68660079     0.15400
N1244       N  0.09052653  0.92916913  0.65676977     0.74500
O1245       O  0.14533592  0.79465573  0.57021615    -0.38900
O1246       O  0.19201528  0.82743740  0.57406575    -0.38900
O1247       O  0.06218312  0.92255328  0.67248820    -0.39600
O1248       O  0.10673634  0.95801052  0.66322810    -0.39600
C1249       C  0.39073738  0.66193205  0.62390996    -0.11900
C1250       C  0.36623843  0.64658811  0.64798291     0.05100
C1251       C  0.36588131  0.60847649  0.65214262    -0.07200
C1252       C  0.38747624  0.58764004  0.63087302    -0.08000
C1253       C  0.40972101  0.60345043  0.60535720    -0.02500
C1254       C  0.41165900  0.64103813  0.60246389     0.04300
N1255       N  0.43570504  0.65877163  0.57876732     0.66800
H1256       H  0.39414087  0.69056383  0.62078121     0.15700
H1257       H  0.38624864  0.55870556  0.63388848     0.15400
N1258       N  0.34317327  0.58998269  0.67676559     0.74500
O1259       O  0.42530128  0.67150447  0.54931689    -0.38900
O1260       O  0.46504968  0.66804737  0.59031844    -0.38900
O1261       O  0.31589970  0.57560252  0.66481518    -0.39600
O1262       O  0.35537141  0.57799300  0.70575013    -0.39600
C1263       C  0.13356696  0.61942621  0.58916412    -0.11900
C1264       C  0.10869934  0.59741110  0.60598041     0.05100
C1265       C  0.10744726  0.59814829  0.64372622    -0.07200
C1266       C  0.13091481  0.61980559  0.66332818    -0.08000
C1267       C  0.15819966  0.64078365  0.64729534    -0.02500
C1268       C  0.15687654  0.64171056  0.60843418     0.04300
N1269       N  0.17361370  0.66906478  0.58714571     0.66800
H1270       H  0.13361396  0.62113851  0.56011732     0.15800
H1271       H  0.12541253  0.62140911  0.69155184     0.15400
N1272       N  0.08046186  0.57941873  0.66279044     0.74500
O1273       O  0.19276741  0.65940515  0.56164727    -0.38900
O1274       O  0.15811678  0.69832272  0.58334123    -0.38900
O1275       O  0.08708169  0.55123443  0.68028497    -0.39600
O1276       O  0.05149430  0.59385022  0.66656534    -0.39600
C1277       C  0.37305369  0.91230998  0.87704827    -0.11900
C1278       C  0.39420596  0.89489209  0.90180887     0.05100
C1279       C  0.39324020  0.85731790  0.90352641    -0.07200
C1280       C  0.37256771  0.83806900  0.87990989    -0.08000
C1281       C  0.34920976  0.85468608  0.85606927    -0.02500
C1282       C  0.35076992  0.89306249  0.85435529     0.04300
N1283       N  0.33383728  0.91315773  0.82691687     0.66800
H1284       H  0.37453120  0.94127254  0.87444040     0.15700
H1285       H  0.37646560  0.80964578  0.88046024     0.15400
N1286       N  0.41457034  0.83782140  0.92780733     0.74500
O1287       O  0.35131278  0.92368432  0.80000058    -0.38900
O1288       O  0.30663353  0.92951786  0.83451201    -0.38900
O1289       O  0.40230257  0.82736981  0.95762605    -0.39600
O1290       O  0.44255929  0.82507403  0.91676099    -0.39600
C1291       C  0.37899656  0.58517713  0.87423757    -0.11900
C1292       C  0.40127444  0.60114589  0.89936730     0.05100
C1293       C  0.40003112  0.63856769  0.90318470    -0.07200
C1294       C  0.37863517  0.65914329  0.88122135    -0.08000
C1295       C  0.35611393  0.64400726  0.85528300    -0.02500
C1296       C  0.35623056  0.60553644  0.85274828     0.04300
N1297       N  0.33351864  0.58597884  0.82925389     0.66800
H1298       H  0.37919163  0.55633303  0.87114389     0.15700
H1299       H  0.38078993  0.68764496  0.88508250     0.15400
N1300       N  0.42134856  0.65676011  0.92859973     0.74500
O1301       O  0.31400909  0.56178555  0.84257150    -0.38900
O1302       O  0.34021664  0.58460409  0.79620618    -0.38900
O1303       O  0.44961512  0.67093739  0.91851370    -0.39600
O1304       O  0.40913084  0.66430202  0.95896046    -0.39600
C1305       C  0.12222814  0.86723985  0.91286634    -0.11900
C1306       C  0.10179771  0.89322794  0.89622693     0.05100
C1307       C  0.10489525  0.89771215  0.85882624    -0.07200
C1308       C  0.12631788  0.87545680  0.83894954    -0.08000
C1309       C  0.14735747  0.84890971  0.85486608    -0.02500
C1310       C  0.14503651  0.84570128  0.89315672     0.04300
N1311       N  0.16361821  0.81929872  0.91286314     0.66800
H1312       H  0.12034118  0.86327254  0.94165477     0.15700
H1313       H  0.12450221  0.87870956  0.81035497     0.15400
N1314       N  0.08505613  0.92367130  0.83989693     0.74500
O1315       O  0.19118310  0.82852615  0.92839690    -0.38900
O1316       O  0.14748772  0.79164988  0.92408793    -0.38900
O1317       O  0.09899136  0.95317549  0.83053062    -0.39600
O1318       O  0.05610120  0.91472737  0.82712817    -0.39600
C1319       C  0.38302834  0.91038615  0.63262725    -0.11900
C1320       C  0.39147739  0.89725922  0.59906405     0.05100
C1321       C  0.37375443  0.86622336  0.58726102    -0.07200
C1322       C  0.35038671  0.84776248  0.61041506    -0.08000
C1323       C  0.34416717  0.85880837  0.64615879    -0.02500
C1324       C  0.35942458  0.89290020  0.65551519     0.04300
N1325       N  0.34874588  0.91373894  0.68527228     0.66800
H1326       H  0.39450584  0.93546669  0.64149144     0.15700
H1327       H  0.33794877  0.82392758  0.60021315     0.15400
N1328       N  0.37911692  0.85286384  0.55196721     0.74500
O1329       O  0.36859108  0.91578862  0.71195993    -0.38900
O1330       O  0.33054104  0.94058989  0.67812891    -0.38900
O1331       O  0.39867346  0.82661170  0.54743028    -0.39600
O1332       O  0.35948215  0.86255552  0.52689046    -0.39600
N1333       N  0.95996744  0.45364300  0.06608019    -0.05800
N1334       N  0.93488758  0.44757749  0.08952491    -0.57900
N1335       N  0.54035041  0.42761356  0.04172670    -0.05500
N1336       N  0.56393321  0.40343478  0.04872336    -0.60000
N1337       N  0.54067686  0.45247504  0.06648877    -0.05100
N1338       N  0.56443419  0.44578432  0.09063560    -0.57900
N1339       N  0.95958023  0.42841516  0.04169821    -0.04700
N1340       N  0.93424293  0.40489756  0.04802609    -0.60400
C1341       C  0.91881246  0.41723967  0.07790765     0.96400
C1342       C  0.57885277  0.41524033  0.07927865     0.96200
N1343       N  0.53793369  0.45228545  0.43093750    -0.06000
N1344       N  0.56055754  0.44522351  0.40544344    -0.58500
N1345       N  0.96035903  0.42870949  0.45787205    -0.04100
N1346       N  0.93608320  0.40436781  0.45177373    -0.59700
N1347       N  0.95961058  0.45423279  0.43331638    -0.06000
N1348       N  0.93488626  0.44769025  0.40990348    -0.58700
N1349       N  0.53871371  0.42748684  0.45629243    -0.03700
N1350       N  0.56193590  0.40309471  0.44842803    -0.59800
Mn1351     Mn  0.00077140  0.42710832  0.49906701     1.18400
C1352       C  0.57557082  0.41451958  0.41658685     0.98500
C1353       C  0.92025431  0.41654560  0.42187904     0.99100
N1354       N  0.54390056  0.03797156  0.06836668    -0.06000
N1355       N  0.56580255  0.04573330  0.09457831    -0.62300
N1356       N  0.96694736  0.06500500  0.04229805    -0.04800
N1357       N  0.94663631  0.09164932  0.05056360    -0.63000
N1358       N  0.96514500  0.03971783  0.06717478    -0.05500
N1359       N  0.94355757  0.04868775  0.09285768    -0.62600
N1360       N  0.54607184  0.06255805  0.04271467    -0.04400
N1361       N  0.56975138  0.08727653  0.05116875    -0.63300
Mn1362     Mn  0.50231560  0.99547787  0.06777550     1.10700
C1363       C  0.58216113  0.07648824  0.08362590     0.99700
C1364       C  0.93211273  0.08106867  0.08205678     0.99800
N1365       N  0.96210722  0.03967574  0.43319001    -0.05500
N1366       N  0.93787858  0.04757191  0.40951088    -0.60900
N1367       N  0.54383828  0.06059368  0.45620835    -0.04800
N1368       N  0.56882705  0.08372036  0.44804996    -0.57600
N1369       N  0.54104582  0.03617893  0.43112860    -0.06200
N1370       N  0.56395624  0.04214614  0.40546104    -0.60500
N1371       N  0.96455392  0.06489218  0.45754747    -0.05100
N1372       N  0.94199116  0.09027663  0.45073336    -0.57700
Mn1373     Mn  0.00036405  0.49567075  0.43086727     1.20200
Mn1374     Mn  0.50581069  0.06354171  0.99906259     1.10100
Cl1375     Cl  0.50237436  0.99523287  0.99944998    -0.85600
C1376       C  0.92526732  0.07924171  0.42077355     0.96700
C1377       C  0.58116698  0.07172482  0.41645995     0.96500
C1378       C  0.67562623  0.16556588  0.33348611    -0.02100
C1379       C  0.66910194  0.32474092  0.32937398    -0.02100
C1380       C  0.66797225  0.32300495  0.16583722    -0.02100
C1381       C  0.68434862  0.16513994  0.17044677    -0.02100
C1382       C  0.83367780  0.16962528  0.33036645    -0.02100
C1383       C  0.84195729  0.17064771  0.16814613    -0.02100
C1384       C  0.82553166  0.33215665  0.17307972    -0.02100
C1385       C  0.82619748  0.33175874  0.33080241    -0.02100
C1386       C  0.86290031  0.34095609  0.23245062    -0.11900
C1387       C  0.83176614  0.34604725  0.21324644     0.05100
C1388       C  0.80680218  0.36564231  0.23376858    -0.07200
C1389       C  0.80751657  0.36413465  0.27129687    -0.08000
C1390       C  0.83320033  0.34573977  0.29046355    -0.02500
C1391       C  0.86436886  0.34290068  0.27055694     0.04300
N1392       N  0.89708486  0.34120388  0.28816132     0.66800
H1393       H  0.88677121  0.33956436  0.21830993     0.15700
H1394       H  0.78663436  0.37675776  0.28533998     0.15400
N1395       N  0.77984396  0.38645550  0.21844557     0.74500
O1396       O  0.91641719  0.31490279  0.28289570    -0.38900
O1397       O  0.91009716  0.36960399  0.30076917    -0.38900
O1398       O  0.74969516  0.37362050  0.22048768    -0.39600
O1399       O  0.78293340  0.42010798  0.21967581    -0.39600
C1400       C  0.87246241  0.23527961  0.17351309    -0.11900
C1401       C  0.84734490  0.21293397  0.15667311     0.05100
C1402       C  0.82643425  0.23277854  0.13257231    -0.07200
C1403       C  0.81903463  0.26953283  0.13996986    -0.08000
C1404       C  0.83811744  0.29105054  0.16471610    -0.02500
C1405       C  0.86982434  0.27376452  0.17467905     0.04300
N1406       N  0.90095981  0.29365321  0.18111986     0.66800
H1407       H  0.89422876  0.22265710  0.18624132     0.15700
H1408       H  0.79956655  0.28221612  0.12377347     0.15400
N1409       N  0.81926296  0.21953897  0.09724449     0.74500
O1410       O  0.92154955  0.28322801  0.20507371    -0.38900
O1411       O  0.91127225  0.31679813  0.15835952    -0.38900
O1412       O  0.79834080  0.23579787  0.07726231    -0.39600
O1413       O  0.84079076  0.19945082  0.08245565    -0.39600
C1414       C  0.81835466  0.17393393  0.26507606    -0.11900
C1415       C  0.84224708  0.16135988  0.28888666     0.05100
C1416       C  0.87292415  0.14829914  0.27049311    -0.07200
C1417       C  0.87470414  0.14915345  0.23115875    -0.08000
C1418       C  0.84982058  0.16846901  0.21048374    -0.02500
C1419       C  0.82696012  0.18601841  0.23199784     0.04300
N1420       N  0.81324971  0.21834944  0.22172002     0.66800
H1421       H  0.79292281  0.17950015  0.27136316     0.15700
H1422       H  0.89589942  0.13643515  0.21763759     0.15400
N1423       N  0.90097252  0.13273104  0.28972925     0.74500
O1424       O  0.79157902  0.21911090  0.19689319    -0.38900
O1425       O  0.83023371  0.24577806  0.23057991    -0.38900
O1426       O  0.90893395  0.10073586  0.28354733    -0.39600
O1427       O  0.92287261  0.15277786  0.30481078    -0.39600
C1428       C  0.83055556  0.22992556  0.36746637    -0.11900
C1429       C  0.84346885  0.21115129  0.33735783     0.05100
C1430       C  0.85980358  0.23352464  0.31130110    -0.07200
C1431       C  0.85147780  0.26991354  0.30819908    -0.08000
C1432       C  0.83479480  0.28940594  0.33547944    -0.02500
C1433       C  0.82676332  0.26811614  0.36718948     0.04300
N1434       N  0.81189677  0.28380079  0.39841732     0.66800
H1435       H  0.81984733  0.21461080  0.38986748     0.15700
H1436       H  0.85964003  0.28170794  0.28356084     0.15400
N1437       N  0.89095863  0.22278148  0.29425974     0.74500
O1438       O  0.77951222  0.28563165  0.40092146    -0.38900
O1439       O  0.82939963  0.28471347  0.42686243    -0.38900
O1440       O  0.89449502  0.22718322  0.26084011    -0.39600
O1441       O  0.91777762  0.22187831  0.31329685    -0.39600
C1442       C  0.74363737  0.15008306  0.13410847    -0.11900
C1443       C  0.72570055  0.15569808  0.16720297     0.05100
C1444       C  0.74880969  0.15048400  0.19706053    -0.07200
C1445       C  0.78346143  0.14146651  0.19184688    -0.08000
C1446       C  0.80217954  0.15521297  0.16228872    -0.02500
C1447       C  0.78106295  0.15227967  0.13073445     0.04300
N1448       N  0.79585583  0.14434645  0.09649492     0.66800
H1449       H  0.72914637  0.14545458  0.11038916     0.15700
H1450       H  0.79680880  0.12991454  0.21436785     0.15400
N1451       N  0.74063482  0.15839082  0.23320334     0.74500
O1452       O  0.78122384  0.15505588  0.06824622    -0.38900
O1453       O  0.81725997  0.11942064  0.09412121    -0.38900
O1454       O  0.74767423  0.13582916  0.25753806    -0.39600
O1455       O  0.73693275  0.19073761  0.24136817    -0.39600
C1456       C  0.68958013  0.26536013  0.13394768    -0.11900
C1457       C  0.66253527  0.28156748  0.15294170     0.05100
C1458       C  0.63475615  0.25658438  0.15984654    -0.07200
C1459       C  0.64190579  0.21898786  0.16269719    -0.08000
C1460       C  0.67571863  0.20516802  0.15764086    -0.02500
C1461       C  0.69793407  0.22943146  0.13873707     0.04300
N1462       N  0.72942963  0.21954514  0.12318450     0.66800
H1463       H  0.70841525  0.28162515  0.11940413     0.15700
H1464       H  0.62120648  0.20047313  0.17019611     0.15400
N1465       N  0.59956193  0.26643545  0.15426319     0.74500
O1466       O  0.73143524  0.21750636  0.08949105    -0.38900
O1467       O  0.75611070  0.22750483  0.14037553    -0.38900
O1468       O  0.59243528  0.28859219  0.12968282    -0.39600
O1469       O  0.57538428  0.24746985  0.16776822    -0.39600
C1470       C  0.72715387  0.30615492  0.18211140    -0.11900
C1471       C  0.70862522  0.33094666  0.16295645     0.05100
C1472       C  0.72917833  0.35708132  0.14357966    -0.07200
C1473       C  0.76642910  0.35592833  0.14471776    -0.08000
C1474       C  0.78447508  0.33143813  0.16746492    -0.02500
C1475       C  0.76250640  0.30655104  0.18688302     0.04300
N1476       N  0.77347677  0.28355657  0.21537903     0.66800
H1477       H  0.71210604  0.28537461  0.19559877     0.15700
H1478       H  0.78096983  0.37626263  0.12991118     0.15400
N1479       N  0.71366385  0.38642263  0.12515036     0.74500
O1480       O  0.75367334  0.25825578  0.22591412    -0.38900
O1481       O  0.79390558  0.29565375  0.23807470    -0.38900
O1482       O  0.70103747  0.41140065  0.14326201    -0.39600
O1483       O  0.72077660  0.39214558  0.09249955    -0.39600
C1484       C  0.67464037  0.35797051  0.22742368    -0.11900
C1485       C  0.65914053  0.32911343  0.20811024     0.05100
C1486       C  0.63445146  0.30957301  0.22924243    -0.07200
C1487       C  0.63915813  0.30666975  0.26711558    -0.08000
C1488       C  0.66009141  0.33074432  0.28711727    -0.02500
C1489       C  0.67384524  0.36008673  0.26573417     0.04300
N1490       N  0.68846427  0.39146740  0.28194992     0.66800
H1491       H  0.68785294  0.37914328  0.21251929     0.15700
H1492       H  0.62278415  0.28806106  0.28078661     0.15400
N1493       N  0.59979693  0.30463000  0.21622118     0.74500
O1494       O  0.67114082  0.41978229  0.28195771    -0.38900
O1495       O  0.72070662  0.39409294  0.28579528    -0.38900
O1496       O  0.57820414  0.28582301  0.23397279    -0.39600
O1497       O  0.58817863  0.32667558  0.19359456    -0.39600
C1498       C  0.72743538  0.35529065  0.35763245    -0.11900
C1499       C  0.70973508  0.33252495  0.33271300     0.05100
C1500       C  0.73151087  0.31206316  0.31129288    -0.07200
C1501       C  0.76681853  0.31422220  0.31372898    -0.08000
C1502       C  0.78552790  0.33449805  0.33772851    -0.02500
C1503       C  0.76480269  0.35582022  0.36106883     0.04300
N1504       N  0.78015416  0.37680542  0.38890376     0.66800
H1505       H  0.71258392  0.37212126  0.37503528     0.15700
H1506       H  0.78088373  0.29882627  0.29552501     0.15400
N1507       N  0.71875119  0.29289305  0.28175296     0.74500
O1508       O  0.77002686  0.40828403  0.39415494    -0.38900
O1509       O  0.79809815  0.36172909  0.41264871    -0.38900
O1510       O  0.70452711  0.26238882  0.28449159    -0.39600
O1511       O  0.72022967  0.30866042  0.25217017    -0.39600
C1512       C  0.67603508  0.13028092  0.27198089    -0.11900
C1513       C  0.66774268  0.16179438  0.29111048     0.05100
C1514       C  0.65423585  0.18916885  0.26903592    -0.07200
C1515       C  0.66580560  0.19212354  0.23331932    -0.08000
C1516       C  0.67428229  0.16157139  0.21256442    -0.02500
C1517       C  0.67600349  0.12883855  0.23363429     0.04300
N1518       N  0.68107748  0.09455353  0.21753324     0.66800
H1519       H  0.68317408  0.10652821  0.28685348     0.15700
H1520       H  0.66562395  0.21889780  0.22241649     0.15400
N1521       N  0.61927177  0.19990088  0.27432860     0.74500
O1522       O  0.71062269  0.08595782  0.20672193    -0.38900
O1523       O  0.65878526  0.06998475  0.22301279    -0.38900
O1524       O  0.60858733  0.22734006  0.25817268    -0.39600
O1525       O  0.59720564  0.17718177  0.28582345    -0.39600
C1526       C  0.73445740  0.18517851  0.31814066    -0.11900
C1527       C  0.71580554  0.15879349  0.33570647     0.05100
C1528       C  0.73634403  0.13197743  0.35303337    -0.07200
C1529       C  0.77376968  0.13585632  0.35374186    -0.08000
C1530       C  0.79196962  0.16564853  0.33738327    -0.02500
C1531       C  0.76879717  0.19203164  0.32440638     0.04300
N1532       N  0.77786004  0.22813957  0.31866396     0.66800
H1533       H  0.72072346  0.20542041  0.30363988     0.15700
H1534       H  0.78797406  0.11575781  0.36790672     0.15400
N1535       N  0.72086452  0.09953893  0.36687302     0.74500
O1536       O  0.76405354  0.24933501  0.34010939    -0.38900
O1537       O  0.78417022  0.23873503  0.28720383    -0.38900
O1538       O  0.70540339  0.07866599  0.34566824    -0.39600
O1539       O  0.72967226  0.08774130  0.39727754    -0.39600
C1540       C  0.63619724  0.22241124  0.34298628    -0.11900
C1541       C  0.66832005  0.20571197  0.34799765     0.05100
C1542       C  0.69259671  0.22892928  0.36592406    -0.07200
C1543       C  0.69029926  0.26621376  0.36132008    -0.08000
C1544       C  0.66313100  0.28346321  0.34290322    -0.02500
C1545       C  0.63271388  0.26071291  0.34071412     0.04300
N1546       N  0.59837484  0.27471839  0.33737643     0.66800
H1547       H  0.61355816  0.20537996  0.34093201     0.15700
H1548       H  0.71011340  0.28193142  0.37445346     0.15400
N1549       N  0.71291318  0.21779196  0.39626063     0.74500
O1550       O  0.57421899  0.25525897  0.32523026    -0.38900
O1551       O  0.59101304  0.30490370  0.34975421    -0.38900
O1552       O  0.74065792  0.20129559  0.39236059    -0.39600
O1553       O  0.70787931  0.23282933  0.42597898    -0.39600
C1554       C  0.62789779  0.11614624  0.33839803    -0.11900
C1555       C  0.65288495  0.13827815  0.35567775     0.05100
C1556       C  0.65365850  0.13582365  0.39392712    -0.07200
C1557       C  0.63151435  0.11221820  0.41252321    -0.08000
C1558       C  0.60705195  0.09144368  0.39484576    -0.02500
C1559       C  0.60554627  0.09302618  0.35732997     0.04300
N1560       N  0.57946002  0.07381700  0.33803943     0.66800
H1561       H  0.62352260  0.11728970  0.30996039     0.15700
H1562       H  0.63235018  0.11161373  0.44160637     0.15400
N1563       N  0.67315610  0.15974377  0.41555694     0.74500
O1564       O  0.55084112  0.08832029  0.33214302    -0.38900
O1565       O  0.58723373  0.04586358  0.32130935    -0.38900
O1566       O  0.65662881  0.18312691  0.43240672    -0.39600
O1567       O  0.70099009  0.14882680  0.42885187    -0.39600
C1568       C  0.62185113  0.36685262  0.08392117    -0.11900
C1569       C  0.60417897  0.39469167  0.10022243     0.05100
C1570       C  0.60980882  0.40125880  0.13677510    -0.07200
C1571       C  0.63072531  0.37866393  0.15665291    -0.08000
C1572       C  0.64742917  0.34899509  0.14142128    -0.02500
C1573       C  0.64393023  0.34471481  0.10353568     0.04300
N1574       N  0.66176294  0.31794350  0.08403733     0.66800
H1575       H  0.61857384  0.36213011  0.05549692     0.15700
H1576       H  0.63265616  0.38491596  0.18462672     0.15400
N1577       N  0.59324651  0.42982005  0.15495267     0.74500
O1578       O  0.64458796  0.29273532  0.06996776    -0.38900
O1579       O  0.69164613  0.32511165  0.07214169    -0.38900
O1580       O  0.56532497  0.42362523  0.17162017    -0.39600
O1581       O  0.60971530  0.45874168  0.16033753    -0.39600
C1582       C  0.89182010  0.16227543  0.12377972    -0.11900
C1583       C  0.86741365  0.14675910  0.14788572     0.05100
C1584       C  0.86698736  0.10863814  0.15169020    -0.07200
C1585       C  0.88840696  0.08798035  0.13010846    -0.08000
C1586       C  0.91038812  0.10395218  0.10445117    -0.02500
C1587       C  0.91230729  0.14153760  0.10173561     0.04300
N1588       N  0.93558267  0.15940942  0.07731380     0.66800
H1589       H  0.89526610  0.19091841  0.12084354     0.15700
H1590       H  0.88715270  0.05902736  0.13291730     0.15400
N1591       N  0.84411516  0.08993029  0.17597549     0.74500
O1592       O  0.92435957  0.17149800  0.04792801    -0.38900
O1593       O  0.96496986  0.16947115  0.08810691    -0.38900
O1594       O  0.81721881  0.07516818  0.16357473    -0.39600
O1595       O  0.85598143  0.07817090  0.20520223    -0.39600
C1596       C  0.63376417  0.11864430  0.08853187    -0.11900
C1597       C  0.60850617  0.09730034  0.10560970     0.05100
C1598       C  0.60739969  0.09850476  0.14334581    -0.07200
C1599       C  0.63127952  0.11997217  0.16266355    -0.08000
C1600       C  0.65894882  0.14023076  0.14640669    -0.02500
C1601       C  0.65760194  0.14064404  0.10751996     0.04300
N1602       N  0.67497208  0.16726106  0.08584158     0.66800
H1603       H  0.63378934  0.12001485  0.05947113     0.15800
H1604       H  0.62578725  0.12204836  0.19084268     0.15400
N1605       N  0.58017978  0.08047063  0.16268756     0.74500
O1606       O  0.69380787  0.15672407  0.06045209    -0.38900
O1607       O  0.66023512  0.19690116  0.08166576    -0.38900
O1608       O  0.58597552  0.05126483  0.17877232    -0.39600
O1609       O  0.55235095  0.09647603  0.16857488    -0.39600
C1610       C  0.87392203  0.41288174  0.37592493    -0.11900
C1611       C  0.89443200  0.39560180  0.40136077     0.05100
C1612       C  0.89260552  0.35807236  0.40398708    -0.07200
C1613       C  0.87187043  0.33869335  0.38051385    -0.08000
C1614       C  0.84924814  0.35523860  0.35587943    -0.02500
C1615       C  0.85149497  0.39358962  0.35342504     0.04300
N1616       N  0.83508100  0.41352564  0.32551681     0.66800
H1617       H  0.87594789  0.44176378  0.37269742     0.15700
H1618       H  0.87510461  0.31020280  0.38186841     0.15400
N1619       N  0.91293229  0.33868008  0.42927468     0.74500
O1620       O  0.85303600  0.42399882  0.29891793    -0.38900
O1621       O  0.80755444  0.42964572  0.33233802    -0.38900
O1622       O  0.89989963  0.32967510  0.45919174    -0.39600
O1623       O  0.94059193  0.32453097  0.41915493    -0.39600
C1624       C  0.87792549  0.08536629  0.37457950    -0.11900
C1625       C  0.89977154  0.10129576  0.40014054     0.05100
C1626       C  0.89801189  0.13863548  0.40441958    -0.07200
C1627       C  0.87703095  0.15925055  0.38207203    -0.08000
C1628       C  0.85511291  0.14419031  0.35555263    -0.02500
C1629       C  0.85528074  0.10573505  0.35295596     0.04300
N1630       N  0.83268648  0.08621158  0.32932433     0.66800
H1631       H  0.87834330  0.05655541  0.37127191     0.15700
H1632       H  0.87892279  0.18771022  0.38624296     0.15400
N1633       N  0.91821544  0.15670396  0.43087278     0.74500
O1634       O  0.81287405  0.06224727  0.34257460    -0.38900
O1635       O  0.83973003  0.08457580  0.29636918    -0.38900
O1636       O  0.94585770  0.17277244  0.42173042    -0.39600
O1637       O  0.90530977  0.16229020  0.46139292    -0.39600
C1638       C  0.62270107  0.36920410  0.41160625    -0.11900
C1639       C  0.60108712  0.39402923  0.39489624     0.05100
C1640       C  0.60322604  0.39776807  0.35733395    -0.07200
C1641       C  0.62533820  0.37616470  0.33744108    -0.08000
C1642       C  0.64736926  0.35058474  0.35349257    -0.02500
C1643       C  0.64572042  0.34797190  0.39187252     0.04300
N1644       N  0.66483518  0.32204758  0.41166188     0.66800
H1645       H  0.62144133  0.36575283  0.44048863     0.15700
H1646       H  0.62332129  0.37902947  0.30878435     0.15400
N1647       N  0.58138567  0.42183933  0.33832088     0.74500
O1648       O  0.69213159  0.33195772  0.42729591    -0.38900
O1649       O  0.64916218  0.29419359  0.42307123    -0.38900
O1650       O  0.59378690  0.45092947  0.32583413    -0.39600
O1651       O  0.55170622  0.41137310  0.32878971    -0.39600
C1652       C  0.88422966  0.41012638  0.13301860    -0.11900
C1653       C  0.89144691  0.39770566  0.09891252     0.05100
C1654       C  0.87308000  0.36718977  0.08689744    -0.07200
C1655       C  0.85031163  0.34837869  0.11035272    -0.08000
C1656       C  0.84511205  0.35880035  0.14643920    -0.02500
C1657       C  0.86101228  0.39252576  0.15614484     0.04300
N1658       N  0.85138007  0.41304698  0.18654138     0.66800
H1659       H  0.89633299  0.43480286  0.14213815     0.15700
H1660       H  0.83727379  0.32494689  0.10001078     0.15400
N1661       N  0.87690155  0.35498029  0.05096345     0.74500
O1662       O  0.87193936  0.41437565  0.21268043    -0.38900
O1663       O  0.83357397  0.44039437  0.18028208    -0.38900
O1664       O  0.89334490  0.32675904  0.04503816    -0.39600
O1665       O  0.85861132  0.36830977  0.02645705    -0.39600
N1666       N  0.96158684  0.45342164  0.56600441    -0.05800
N1667       N  0.93644924  0.44735182  0.58941808    -0.57900
N1668       N  0.53954293  0.42813581  0.54192738    -0.05500
N1669       N  0.56285703  0.40370944  0.54903086    -0.60000
N1670       N  0.54002013  0.45300057  0.56669021    -0.05100
N1671       N  0.56359549  0.44603382  0.59096406    -0.57900
N1672       N  0.96113958  0.42828439  0.54150916    -0.04700
N1673       N  0.93565259  0.40485065  0.54775130    -0.60400
C1674       C  0.92021213  0.41712431  0.57771299     0.96400
C1675       C  0.57776906  0.41534462  0.57965232     0.96200
N1676       N  0.53907454  0.45167705  0.93083015    -0.06000
N1677       N  0.56169253  0.44446533  0.90539715    -0.58500
N1678       N  0.95854179  0.42829383  0.95833659    -0.04100
N1679       N  0.93387036  0.40428563  0.95259547    -0.59700
N1680       N  0.95799292  0.45364834  0.93361333    -0.06000
N1681       N  0.93300587  0.44735157  0.91044284    -0.58700
N1682       N  0.53974692  0.42693675  0.95623809    -0.03700
N1683       N  0.56284712  0.40241376  0.94848009    -0.59800
Mn1684     Mn  0.99903028  0.42677444  0.99945365     1.18400
C1685       C  0.57654253  0.41372057  0.91665480     0.98500
C1686       C  0.91799145  0.41652338  0.92274305     0.99100
N1687       N  0.54327445  0.03798327  0.56888366    -0.06000
N1688       N  0.56516755  0.04563380  0.59512433    -0.62300
N1689       N  0.96662240  0.06481050  0.54243383    -0.04800
N1690       N  0.94619962  0.09139183  0.55047886    -0.63000
N1691       N  0.96473306  0.03951451  0.56728466    -0.05500
N1692       N  0.94296568  0.04847771  0.59282698    -0.62600
N1693       N  0.54553390  0.06258228  0.54324588    -0.04400
N1694       N  0.56927971  0.08718915  0.55171565    -0.63300
Mn1695     Mn  0.50165882  0.99566965  0.56822909     1.10700
C1696       C  0.58160296  0.07632470  0.58416085     0.99700
C1697       C  0.93153797  0.08084028  0.58186628     0.99800
N1698       N  0.96239004  0.03948534  0.93280409    -0.05500
N1699       N  0.93853973  0.04757232  0.90878621    -0.60900
N1700       N  0.54407172  0.06001024  0.95552298    -0.04800
N1701       N  0.56909229  0.08303679  0.94719858    -0.57600
N1702       N  0.54119082  0.03548581  0.93053869    -0.06200
N1703       N  0.56405079  0.04127422  0.90479959    -0.60500
N1704       N  0.96491691  0.06483622  0.95701913    -0.05100
N1705       N  0.94280586  0.09053856  0.94972364    -0.57700
Mn1706     Mn  0.99906952  0.49470472  0.93097637     1.20200
Mn1707     Mn  0.50541297  0.06391186  0.49952874     1.10100
Cl1708     Cl  0.50184476  0.99560134  0.49986825    -0.85600
C1709       C  0.92625966  0.07951830  0.91964497     0.96700
C1710       C  0.58132959  0.07085066  0.91563732     0.96500
C1711       C  0.67638267  0.16397361  0.83296756    -0.02100
C1712       C  0.66868793  0.32300303  0.82916492    -0.02100
C1713       C  0.66718693  0.32282248  0.66567386    -0.02100
C1714       C  0.68391487  0.16508029  0.67016352    -0.02100
C1715       C  0.83445966  0.16963013  0.82890234    -0.02100
C1716       C  0.84132791  0.17125568  0.66671109    -0.02100
C1717       C  0.82499956  0.33283017  0.67213043    -0.02100
C1718       C  0.82560234  0.33164338  0.83016915    -0.02100
C1719       C  0.86225827  0.34096235  0.73177303    -0.11900
C1720       C  0.83125745  0.34648459  0.71244902     0.05100
C1721       C  0.80634070  0.36607755  0.73304730    -0.07200
C1722       C  0.80686020  0.36424393  0.77063667    -0.08000
C1723       C  0.83260777  0.34594963  0.78984907    -0.02500
C1724       C  0.86377070  0.34311863  0.76989933     0.04300
N1725       N  0.89644324  0.34073782  0.78752000     0.66800
H1726       H  0.88608155  0.33887909  0.71769812     0.15700
H1727       H  0.78587825  0.37664612  0.78470375     0.15400
N1728       N  0.77973179  0.38734459  0.71767618     0.74500
O1729       O  0.91642148  0.31547719  0.78018856    -0.38900
O1730       O  0.90862085  0.36807859  0.80293426    -0.38900
O1731       O  0.74940288  0.37491209  0.71931339    -0.39600
O1732       O  0.78327961  0.42095284  0.71903504    -0.39600
C1733       C  0.87195013  0.23595001  0.67199337    -0.11900
C1734       C  0.84676762  0.21358878  0.65523613     0.05100
C1735       C  0.82572501  0.23349653  0.63131700    -0.07200
C1736       C  0.81836534  0.27026943  0.63879053    -0.08000
C1737       C  0.83755177  0.29174611  0.66350136    -0.02500
C1738       C  0.86934954  0.27446561  0.67315092     0.04300
N1739       N  0.90061185  0.29439573  0.67894693     0.66800
H1740       H  0.89380352  0.22332063  0.68454440     0.15700
H1741       H  0.79886612  0.28300014  0.62267201     0.15400
N1742       N  0.81848236  0.22030875  0.59600173     0.74500
O1743       O  0.92187635  0.28375440  0.70214331    -0.38900
O1744       O  0.91024903  0.31788687  0.65623566    -0.38900
O1745       O  0.79728433  0.23639416  0.57619538    -0.39600
O1746       O  0.84010572  0.20042324  0.58106875    -0.39600
C1747       C  0.81852460  0.17430014  0.76383843    -0.11900
C1748       C  0.84273094  0.16164822  0.78732482     0.05100
C1749       C  0.87331305  0.14886237  0.76861600    -0.07200
C1750       C  0.87467885  0.14972224  0.72927909    -0.08000
C1751       C  0.84953446  0.16902035  0.70893531    -0.02500
C1752       C  0.82684264  0.18647019  0.73068036     0.04300
N1753       N  0.81286023  0.21872034  0.72053629     0.66800
H1754       H  0.79349668  0.17963864  0.77019196     0.15700
H1755       H  0.89574757  0.13706897  0.71550191     0.15400
N1756       N  0.90179316  0.13377524  0.78755073     0.74500
O1757       O  0.79115655  0.21936598  0.69573232    -0.38900
O1758       O  0.82982359  0.24621795  0.72921852    -0.38900
O1759       O  0.91035484  0.10201172  0.78111145    -0.39600
O1760       O  0.92339129  0.15419075  0.80261054    -0.39600
C1761       C  0.83110688  0.22963082  0.86632149    -0.11900
C1762       C  0.84394120  0.21118244  0.83598532     0.05100
C1763       C  0.85982546  0.23384897  0.80989145    -0.07200
C1764       C  0.85114184  0.27012987  0.80709896    -0.08000
C1765       C  0.83453130  0.28933330  0.83463199    -0.02500
C1766       C  0.82682277  0.26775140  0.86626734     0.04300
N1767       N  0.81180367  0.28299269  0.89766030     0.66800
H1768       H  0.82074760  0.21406195  0.88872405     0.15700
H1769       H  0.85888420  0.28200819  0.78237688     0.15400
N1770       N  0.89088619  0.22355023  0.79236863     0.74500
O1771       O  0.77941316  0.28487241  0.89999905    -0.38900
O1772       O  0.82910112  0.28328865  0.92625561    -0.38900
O1773       O  0.89380741  0.22784892  0.75887785    -0.39600
O1774       O  0.91804172  0.22338981  0.81091651    -0.39600
C1775       C  0.74287762  0.15024365  0.63339425    -0.11900
C1776       C  0.72519692  0.15575898  0.66662898     0.05100
C1777       C  0.74852452  0.15069791  0.69631197    -0.07200
C1778       C  0.78314324  0.14188295  0.69078975    -0.08000
C1779       C  0.80154756  0.15582501  0.66111068    -0.02500
C1780       C  0.78023162  0.15283787  0.62970287     0.04300
N1781       N  0.79479029  0.14558607  0.59519259     0.66800
H1782       H  0.72824518  0.14554193  0.60978930     0.15700
H1783       H  0.79669490  0.13036199  0.71318418     0.15400
N1784       N  0.74061100  0.15854645  0.73254149     0.74500
O1785       O  0.77972653  0.15646605  0.56726002    -0.38900
O1786       O  0.81653864  0.12105837  0.59221448    -0.38900
O1787       O  0.74799687  0.13600279  0.75677354    -0.39600
O1788       O  0.73683047  0.19086510  0.74078863    -0.39600
C1789       C  0.68883372  0.26531796  0.63370412    -0.11900
C1790       C  0.66180257  0.28142693  0.65273305     0.05100
C1791       C  0.63408019  0.25637245  0.65967923    -0.07200
C1792       C  0.64138379  0.21884492  0.66277143    -0.08000
C1793       C  0.67519288  0.20511844  0.65753628    -0.02500
C1794       C  0.69725804  0.22941564  0.63844658     0.04300
N1795       N  0.72862871  0.21960728  0.62257026     0.66800
H1796       H  0.70757478  0.28163497  0.61909153     0.15700
H1797       H  0.62076278  0.20028066  0.67038281     0.15400
N1798       N  0.59886260  0.26597257  0.65369128     0.74500
O1799       O  0.73026546  0.21748613  0.58886193    -0.38900
O1800       O  0.75545919  0.22785819  0.63938077    -0.38900
O1801       O  0.59182918  0.28810827  0.62906558    -0.39600
O1802       O  0.57466714  0.24681591  0.66689345    -0.39600
C1803       C  0.72662502  0.30641598  0.68156650    -0.11900
C1804       C  0.70784656  0.33107340  0.66255058     0.05100
C1805       C  0.72822739  0.35732104  0.64306868    -0.07200
C1806       C  0.76554694  0.35639751  0.64403737    -0.08000
C1807       C  0.78384449  0.33202444  0.66669974    -0.02500
C1808       C  0.76201422  0.30702670  0.68619652     0.04300
N1809       N  0.77319279  0.28393648  0.71452071     0.66800
H1810       H  0.71175253  0.28547485  0.69499423     0.15700
H1811       H  0.77995463  0.37677316  0.62914384     0.15400
N1812       N  0.71246274  0.38649482  0.62460780     0.74500
O1813       O  0.75356066  0.25845919  0.72497036    -0.38900
O1814       O  0.79356104  0.29604836  0.73725870    -0.38900
O1815       O  0.69960646  0.41137300  0.64267988    -0.39600
O1816       O  0.71945751  0.39220000  0.59192698    -0.39600
C1817       C  0.67395200  0.35721741  0.72754085    -0.11900
C1818       C  0.65843439  0.32854642  0.70800709     0.05100
C1819       C  0.63392015  0.30862176  0.72904063    -0.07200
C1820       C  0.63869464  0.30537462  0.76687004    -0.08000
C1821       C  0.65964215  0.32929133  0.78698618    -0.02500
C1822       C  0.67327641  0.35890301  0.76587069     0.04300
N1823       N  0.68819092  0.38996736  0.78240265     0.66800
H1824       H  0.68712795  0.37852997  0.71280857     0.15700
H1825       H  0.62240915  0.28660651  0.78048272     0.15400
N1826       N  0.59932442  0.30335834  0.71601044     0.74500
O1827       O  0.67068745  0.41810638  0.78386567    -0.38900
O1828       O  0.72052678  0.39274084  0.78521239    -0.38900
O1829       O  0.57810055  0.28373431  0.73336101    -0.39600
O1830       O  0.58730531  0.32563860  0.69385421    -0.39600
C1831       C  0.72673823  0.35386512  0.85747513    -0.11900
C1832       C  0.70923137  0.33106173  0.83247205     0.05100
C1833       C  0.73113652  0.31098825  0.81083276    -0.07200
C1834       C  0.76642134  0.31371075  0.81301331    -0.08000
C1835       C  0.78495513  0.33400276  0.83710759    -0.02500
C1836       C  0.76407842  0.35479560  0.86079996     0.04300
N1837       N  0.77922009  0.37552470  0.88895389     0.66800
H1838       H  0.71177546  0.37038385  0.87507118     0.15700
H1839       H  0.78060810  0.29861215  0.79467059     0.15400
N1840       N  0.71849765  0.29191179  0.78118595     0.74500
O1841       O  0.76870859  0.40676928  0.89470553    -0.38900
O1842       O  0.79714021  0.36024656  0.91258727    -0.38900
O1843       O  0.70423655  0.26141077  0.78376815    -0.39600
O1844       O  0.71976253  0.30796032  0.75174056    -0.39600
C1845       C  0.67663295  0.12928531  0.77118837    -0.11900
C1846       C  0.66827592  0.16054189  0.79065801     0.05100
C1847       C  0.65423183  0.18794750  0.76899991    -0.07200
C1848       C  0.66559076  0.19145439  0.73328481    -0.08000
C1849       C  0.67418008  0.16117965  0.71222919    -0.02500
C1850       C  0.67626998  0.12824078  0.73288146     0.04300
N1851       N  0.68147419  0.09420299  0.71633704     0.66800
H1852       H  0.68402676  0.10543890  0.78571452     0.15700
H1853       H  0.66494400  0.21829175  0.72258632     0.15400
N1854       N  0.61896603  0.19758546  0.77434297     0.74500
O1855       O  0.71131245  0.08542635  0.70660503    -0.38900
O1856       O  0.65888870  0.06975075  0.72091687    -0.38900
O1857       O  0.60779911  0.22541580  0.75928735    -0.39600
O1858       O  0.59733224  0.17400382  0.78494531    -0.39600
C1859       C  0.73496059  0.18448090  0.81766937    -0.11900
C1860       C  0.71666284  0.15761830  0.83488970     0.05100
C1861       C  0.73758219  0.13066081  0.85148134    -0.07200
C1862       C  0.77496429  0.13502425  0.85215818    -0.08000
C1863       C  0.79281219  0.16526962  0.83624081    -0.02500
C1864       C  0.76929140  0.19159061  0.82375312     0.04300
N1865       N  0.77801000  0.22780341  0.81802441     0.66800
H1866       H  0.72094412  0.20473755  0.80349185     0.15700
H1867       H  0.78941971  0.11486870  0.86591643     0.15400
N1868       N  0.72258659  0.09756297  0.86433413     0.74500
O1869       O  0.76408598  0.24878467  0.83960194    -0.38900
O1870       O  0.78393180  0.23854488  0.78652553    -0.38900
O1871       O  0.70692312  0.07741501  0.84260650    -0.39600
O1872       O  0.73222083  0.08453523  0.89395092    -0.39600
C1873       C  0.63640289  0.22038364  0.84267308    -0.11900
C1874       C  0.66863229  0.20391383  0.84776943     0.05100
C1875       C  0.69271527  0.22729648  0.86567835    -0.07200
C1876       C  0.69024821  0.26455621  0.86097878    -0.08000
C1877       C  0.66296954  0.28163488  0.84255954    -0.02500
C1878       C  0.63268143  0.25867484  0.84035754     0.04300
N1879       N  0.59824044  0.27246011  0.83714192     0.66800
H1880       H  0.61389708  0.20316201  0.84044526     0.15700
H1881       H  0.70999306  0.28038916  0.87408138     0.15400
N1882       N  0.71311656  0.21625606  0.89595846     0.74500
O1883       O  0.57402591  0.25266743  0.82565072    -0.38900
O1884       O  0.59086341  0.30280246  0.84912414    -0.38900
O1885       O  0.74114496  0.20029505  0.89191378    -0.39600
O1886       O  0.70789611  0.23112075  0.92572852    -0.39600
C1887       C  0.62890186  0.11433892  0.83770049    -0.11900
C1888       C  0.65398620  0.13631461  0.85504599     0.05100
C1889       C  0.65490256  0.13359384  0.89328558    -0.07200
C1890       C  0.63225860  0.11045436  0.91181461    -0.08000
C1891       C  0.60750406  0.09012962  0.89407700    -0.02500
C1892       C  0.60626078  0.09149881  0.85655589     0.04300
N1893       N  0.58025504  0.07229591  0.83713254     0.66800
H1894       H  0.62463735  0.11538883  0.80925372     0.15700
H1895       H  0.63312046  0.10968030  0.94089482     0.15400
N1896       N  0.67547368  0.15647525  0.91501588     0.74500
O1897       O  0.55197680  0.08714267  0.83038140    -0.38900
O1898       O  0.58807519  0.04414909  0.82075038    -0.38900
O1899       O  0.65982774  0.17867620  0.93423493    -0.39600
O1900       O  0.70411120  0.14517209  0.92586910    -0.39600
C1901       C  0.62057065  0.36678744  0.58415601    -0.11900
C1902       C  0.60292978  0.39456282  0.60059690     0.05100
C1903       C  0.60847827  0.40086720  0.63721747    -0.07200
C1904       C  0.62948163  0.37821352  0.65696137    -0.08000
C1905       C  0.64633399  0.34875050  0.64150498    -0.02500
C1906       C  0.64271767  0.34460123  0.60361714     0.04300
N1907       N  0.66051133  0.31791089  0.58395926     0.66800
H1908       H  0.61727503  0.36220151  0.55571037     0.15700
H1909       H  0.63149035  0.38430300  0.68497777     0.15400
N1910       N  0.59184046  0.42928306  0.65554735     0.74500
O1911       O  0.64329956  0.29284226  0.56969446    -0.38900
O1912       O  0.69041996  0.32508250  0.57214252    -0.38900
O1913       O  0.56464474  0.42265174  0.67333018    -0.39600
O1914       O  0.60777885  0.45871161  0.65985486    -0.39600
C1915       C  0.89130958  0.16242972  0.62276105    -0.11900
C1916       C  0.86648602  0.14712322  0.64647061     0.05100
C1917       C  0.86550806  0.10896077  0.65014699    -0.07200
C1918       C  0.88701072  0.08808416  0.62892874    -0.08000
C1919       C  0.90974516  0.10387684  0.60394004    -0.02500
C1920       C  0.91216282  0.14146457  0.60134140     0.04300
N1921       N  0.93658042  0.15908434  0.57797065     0.66800
H1922       H  0.89500463  0.19105455  0.61990942     0.15700
H1923       H  0.88530973  0.05912913  0.63153971     0.15400
N1924       N  0.84190134  0.09044085  0.67380808     0.74500
O1925       O  0.92648590  0.17247923  0.54869117    -0.38900
O1926       O  0.96604216  0.16761650  0.58973939    -0.38900
O1927       O  0.81560417  0.07520476  0.66061727    -0.39600
O1928       O  0.85261190  0.07956836  0.70385666    -0.39600
C1929       C  0.63337073  0.11800285  0.58877591    -0.11900
C1930       C  0.60796917  0.09703646  0.60604207     0.05100
C1931       C  0.60661518  0.09875976  0.64372912    -0.07200
C1932       C  0.63060593  0.12022343  0.66285345    -0.08000
C1933       C  0.65839236  0.14015939  0.64638866    -0.02500
C1934       C  0.65705280  0.14029191  0.60754591     0.04300
N1935       N  0.67395734  0.16710441  0.58572509     0.66800
H1936       H  0.63344929  0.11905112  0.55970552     0.15800
H1937       H  0.62509101  0.12262762  0.69101267     0.15400
N1938       N  0.57895052  0.08151626  0.66311239     0.74500
O1939       O  0.69256855  0.15681753  0.56004917    -0.38900
O1940       O  0.65895316  0.19663568  0.58187639    -0.38900
O1941       O  0.58435329  0.05297860  0.68052803    -0.39600
O1942       O  0.55111574  0.09788549  0.66784144    -0.39600
C1943       C  0.87194298  0.41288383  0.87646668    -0.11900
C1944       C  0.89211787  0.39564015  0.90223921     0.05100
C1945       C  0.89027963  0.35812090  0.90488111    -0.07200
C1946       C  0.87052480  0.33869476  0.88059288    -0.08000
C1947       C  0.84820601  0.35515098  0.85561148    -0.02500
C1948       C  0.84996588  0.39352125  0.85355262     0.04300
N1949       N  0.83343764  0.41346486  0.82573512     0.66800
H1950       H  0.87385564  0.44178283  0.87335340     0.15700
H1951       H  0.87415342  0.31027074  0.88176286     0.15400
N1952       N  0.90936397  0.33880609  0.93127801     0.74500
O1953       O  0.85137184  0.42438015  0.79929260    -0.38900
O1954       O  0.80563094  0.42908746  0.83253690    -0.38900
O1955       O  0.89499560  0.33027829  0.96067099    -0.39600
O1956       O  0.93720141  0.32413909  0.92256133    -0.39600
C1957       C  0.87920672  0.08560629  0.87320406    -0.11900
C1958       C  0.90114208  0.10165768  0.89859368     0.05100
C1959       C  0.89984566  0.13909517  0.90225227    -0.07200
C1960       C  0.87872160  0.15957615  0.87989624    -0.08000
C1961       C  0.85639675  0.14433205  0.85381008    -0.02500
C1962       C  0.85666260  0.10585581  0.85135998     0.04300
N1963       N  0.83432765  0.08615338  0.82760684     0.66800
H1964       H  0.87950414  0.05675768  0.87017330     0.15700
H1965       H  0.88085430  0.18808958  0.88367175     0.15400
N1966       N  0.92076560  0.15738567  0.92796131     0.74500
O1967       O  0.81490870  0.06175693  0.84069666    -0.38900
O1968       O  0.84141452  0.08482748  0.79464571    -0.38900
O1969       O  0.94816937  0.17335028  0.91788628    -0.39600
O1970       O  0.90868007  0.16328899  0.95877494    -0.39600
C1971       C  0.62311375  0.36790252  0.91158770    -0.11900
C1972       C  0.60162255  0.39286382  0.89491756     0.05100
C1973       C  0.60322005  0.39619766  0.85732356    -0.07200
C1974       C  0.62483586  0.37421460  0.83736374    -0.08000
C1975       C  0.64695115  0.34869125  0.85335947    -0.02500
C1976       C  0.64562681  0.34623367  0.89174763     0.04300
N1977       N  0.66451965  0.32006031  0.91144552     0.66800
H1978       H  0.62210844  0.36466053  0.94050151     0.15700
H1979       H  0.62239601  0.37682786  0.80872207     0.15400
N1980       N  0.58127075  0.42021451  0.83838188     0.74500
O1981       O  0.69180043  0.32968875  0.92727738    -0.38900
O1982       O  0.64865449  0.29220657  0.92256469    -0.38900
O1983       O  0.59360105  0.44928369  0.82577205    -0.39600
O1984       O  0.55159059  0.40966265  0.82894268    -0.39600
C1985       C  0.88546991  0.40989714  0.63291222    -0.11900
C1986       C  0.89240005  0.39782941  0.59857599     0.05100
C1987       C  0.87305509  0.36811390  0.58610432    -0.07200
C1988       C  0.84972279  0.34958938  0.60932398    -0.08000
C1989       C  0.84477656  0.35959899  0.64559435    -0.02500
C1990       C  0.86161930  0.39271353  0.65573801     0.04300
N1991       N  0.85230425  0.41319691  0.68627362     0.66800
H1992       H  0.89825072  0.43405402  0.64242016     0.15700
H1993       H  0.83606996  0.32663049  0.59872315     0.15400
N1994       N  0.87637308  0.35652503  0.54990472     0.74500
O1995       O  0.87294890  0.41418238  0.71235483    -0.38900
O1996       O  0.83469658  0.44072818  0.68023798    -0.38900
O1997       O  0.89253445  0.32829685  0.54324356    -0.39600
O1998       O  0.85803043  0.37054500  0.52583237    -0.39600
N1999       N  0.96070318  0.95402548  0.06698027    -0.05800
N2000       N  0.93580371  0.94778498  0.09063946    -0.57900
N2001       N  0.53996015  0.92766483  0.04178538    -0.05500
N2002       N  0.56316355  0.90319825  0.04917393    -0.60000
N2003       N  0.54026542  0.95260880  0.06647791    -0.05100
N2004       N  0.56364677  0.94565277  0.09097595    -0.57900
N2005       N  0.96023238  0.92884846  0.04254123    -0.04700
N2006       N  0.93501990  0.90521666  0.04903595    -0.60400
C2007       C  0.91974311  0.91738680  0.07909448     0.96400
C2008       C  0.57783426  0.91486392  0.07990391     0.96200
N2009       N  0.53854366  0.95218229  0.43125991    -0.06000
N2010       N  0.56126643  0.94506344  0.40591224    -0.58500
N2011       N  0.96019895  0.92892769  0.45857405    -0.04100
N2012       N  0.93595376  0.90455771  0.45245670    -0.59700
N2013       N  0.95951984  0.95438846  0.43394472    -0.06000
N2014       N  0.93486596  0.94779979  0.41047431    -0.58700
N2015       N  0.53917564  0.92742829  0.45667257    -0.03700
N2016       N  0.56236514  0.90297554  0.44897177    -0.59800
Mn2017     Mn  0.00042966  0.92755384  0.49996228     1.18400
C2018       C  0.57613560  0.91435579  0.41719734     0.98500
C2019       C  0.92023080  0.91668063  0.42247678     0.99100
N2020       N  0.54443446  0.53758553  0.06890143    -0.06000
N2021       N  0.56635250  0.54512903  0.09517017    -0.62300
N2022       N  0.96606007  0.56455556  0.04227918    -0.04800
N2023       N  0.94598399  0.59132969  0.05079819    -0.63000
N2024       N  0.96424650  0.53920850  0.06707266    -0.05500
N2025       N  0.94290154  0.54825896  0.09297001    -0.62600
N2026       N  0.54667384  0.56228242  0.04336467    -0.04400
N2027       N  0.57043340  0.58687280  0.05197969    -0.63300
Mn2028     Mn  0.50278312  0.49524086  0.06809461     1.10700
C2029       C  0.58281573  0.57588438  0.08440171     0.99700
C2030       C  0.93159759  0.58077775  0.08238568     0.99800
N2031       N  0.96255246  0.53959369  0.43292174    -0.05500
N2032       N  0.93830813  0.54771076  0.40934371    -0.60900
N2033       N  0.54309545  0.56086437  0.45630848    -0.04800
N2034       N  0.56818629  0.58388248  0.44822613    -0.57600
N2035       N  0.54028104  0.53644450  0.43122301    -0.06200
N2036       N  0.56328559  0.54232608  0.40562358    -0.60500
N2037       N  0.96525546  0.56475823  0.45731962    -0.05100
N2038       N  0.94285823  0.59032954  0.45061009    -0.57700
Mn2039     Mn  0.00015135  0.99593184  0.43155326     1.20200
Mn2040     Mn  0.50638769  0.56353204  0.99958684     1.10100
Cl2041     Cl  0.50269554  0.49522804  0.99973691    -0.85600
C2042       C  0.92596129  0.57945767  0.42069845     0.96700
C2043       C  0.58056790  0.57184798  0.41667588     0.96500
C2044       C  0.67601879  0.66526220  0.33445608    -0.02100
C2045       C  0.66909806  0.82424141  0.33010064    -0.02100
C2046       C  0.66733878  0.82284169  0.16664401    -0.02100
C2047       C  0.68460704  0.66497093  0.17147173    -0.02100
C2048       C  0.83411186  0.67011996  0.33088248    -0.02100
C2049       C  0.84235249  0.67136049  0.16872682    -0.02100
C2050       C  0.82503269  0.83272895  0.17346467    -0.02100
C2051       C  0.82613335  0.83209085  0.33146179    -0.02100
C2052       C  0.86239241  0.84106651  0.23292666    -0.11900
C2053       C  0.83128591  0.84643807  0.21373847     0.05100
C2054       C  0.80638247  0.86604919  0.23438054    -0.07200
C2055       C  0.80717790  0.86452834  0.27195653    -0.08000
C2056       C  0.83296873  0.84624141  0.29108664    -0.02500
C2057       C  0.86403226  0.84333895  0.27102359     0.04300
N2058       N  0.89680934  0.84166196  0.28850134     0.66800
H2059       H  0.88616276  0.83894222  0.21876071     0.15700
H2060       H  0.78630128  0.87708406  0.28608190     0.15400
N2061       N  0.77951709  0.88705432  0.21912463     0.74500
O2062       O  0.91648288  0.81578772  0.28254360    -0.38900
O2063       O  0.90942354  0.86986735  0.30192060    -0.38900
O2064       O  0.74931541  0.87430077  0.22089100    -0.39600
O2065       O  0.78270435  0.92068575  0.22066405    -0.39600
C2066       C  0.87274886  0.73624899  0.17348735    -0.11900
C2067       C  0.84765023  0.71361994  0.15693959     0.05100
C2068       C  0.82638352  0.73326392  0.13301026    -0.07200
C2069       C  0.81868737  0.76996387  0.14044984    -0.08000
C2070       C  0.83781979  0.79168744  0.16497444    -0.02500
C2071       C  0.86988495  0.77476124  0.17437343     0.04300
N2072       N  0.90109644  0.79500529  0.17949580     0.66800
H2073       H  0.89473161  0.72385665  0.18603692     0.15700
H2074       H  0.79905604  0.78249792  0.12434796     0.15400
N2075       N  0.81932258  0.71999790  0.09768230     0.74500
O2076       O  0.92278412  0.78473385  0.20242957    -0.38900
O2077       O  0.91029819  0.81824694  0.15634878    -0.38900
O2078       O  0.79813185  0.73596817  0.07777852    -0.39600
O2079       O  0.84107855  0.70020315  0.08283909    -0.39600
C2080       C  0.81898494  0.67526556  0.26566154    -0.11900
C2081       C  0.84267009  0.66206245  0.28937778     0.05100
C2082       C  0.87323199  0.64879583  0.27098445    -0.07200
C2083       C  0.87506894  0.64978926  0.23166467    -0.08000
C2084       C  0.85039397  0.66943691  0.21103469    -0.02500
C2085       C  0.82781375  0.68732212  0.23259610     0.04300
N2086       N  0.81392556  0.71950826  0.22212957     0.66800
H2087       H  0.79389326  0.68085046  0.27175318     0.15700
H2088       H  0.89611380  0.63685325  0.21812551     0.15400
N2089       N  0.90113398  0.63293456  0.29019969     0.74500
O2090       O  0.79210515  0.71992813  0.19744379    -0.38900
O2091       O  0.83069333  0.74714638  0.23079668    -0.38900
O2092       O  0.90899407  0.60095484  0.28380348    -0.39600
O2093       O  0.92294036  0.65272829  0.30574680    -0.39600
C2094       C  0.83105255  0.73033544  0.36809742    -0.11900
C2095       C  0.84383686  0.71163544  0.33790102     0.05100
C2096       C  0.86004472  0.73406307  0.31179425    -0.07200
C2097       C  0.85152118  0.77037940  0.30868141    -0.08000
C2098       C  0.83487138  0.78978041  0.33603025    -0.02500
C2099       C  0.82719809  0.76851473  0.36783859     0.04300
N2100       N  0.81263045  0.78422065  0.39919009     0.66800
H2101       H  0.82055120  0.71498447  0.39057647     0.15700
H2102       H  0.85957343  0.78220558  0.28403451     0.15400
N2103       N  0.89115647  0.72340739  0.29457244     0.74500
O2104       O  0.78025183  0.78526344  0.40240514    -0.38900
O2105       O  0.83071986  0.78597384  0.42719506    -0.38900
O2106       O  0.89473219  0.72828554  0.26121236    -0.39600
O2107       O  0.91796224  0.72200071  0.31358723    -0.39600
C2108       C  0.74394300  0.65021853  0.13514539    -0.11900
C2109       C  0.72603685  0.65589856  0.16823994     0.05100
C2110       C  0.74926489  0.65117577  0.19808668    -0.07200
C2111       C  0.78397365  0.64241539  0.19287727    -0.08000
C2112       C  0.80255242  0.65592481  0.16313398    -0.02500
C2113       C  0.78134921  0.65269597  0.13165966     0.04300
N2114       N  0.79609332  0.64502117  0.09733501     0.66800
H2115       H  0.72941240  0.64536782  0.11148678     0.15700
H2116       H  0.79742289  0.63108988  0.21543758     0.15400
N2117       N  0.74107436  0.65913910  0.23421762     0.74500
O2118       O  0.78125210  0.65567076  0.06918510    -0.38900
O2119       O  0.81773213  0.62033837  0.09477947    -0.38900
O2120       O  0.74853928  0.63682313  0.25863318    -0.39600
O2121       O  0.73690665  0.69144621  0.24225019    -0.39600
C2122       C  0.68922288  0.76522933  0.13482904    -0.11900
C2123       C  0.66209740  0.78132839  0.15379257     0.05100
C2124       C  0.63446799  0.75616140  0.16077217    -0.07200
C2125       C  0.64182816  0.71859692  0.16365824    -0.08000
C2126       C  0.67572548  0.70496901  0.15866348    -0.02500
C2127       C  0.69779970  0.72935592  0.13971445     0.04300
N2128       N  0.72931098  0.71961382  0.12408505     0.66800
H2129       H  0.70793948  0.78157573  0.12021084     0.15700
H2130       H  0.62123080  0.69996007  0.17116532     0.15400
N2131       N  0.59919836  0.76580581  0.15531910     0.74500
O2132       O  0.73126293  0.71765143  0.09038364    -0.38900
O2133       O  0.75600347  0.72763341  0.14123358    -0.38900
O2134       O  0.59188269  0.78804097  0.13087477    -0.39600
O2135       O  0.57515619  0.74666363  0.16884394    -0.39600
C2136       C  0.72666925  0.80636681  0.18274535    -0.11900
C2137       C  0.70796572  0.83104585  0.16367694     0.05100
C2138       C  0.72834274  0.85743277  0.14445786    -0.07200
C2139       C  0.76564810  0.85643972  0.14540442    -0.08000
C2140       C  0.78390815  0.83189350  0.16793820    -0.02500
C2141       C  0.76205048  0.80687928  0.18735614     0.04300
N2142       N  0.77314070  0.78387146  0.21577498     0.66800
H2143       H  0.71171867  0.78559737  0.19636957     0.15700
H2144       H  0.78006379  0.87695510  0.13071339     0.15400
N2145       N  0.71256748  0.88703548  0.12672700     0.74500
O2146       O  0.75346675  0.75841262  0.22618479    -0.38900
O2147       O  0.79327968  0.79614387  0.23864292    -0.38900
O2148       O  0.70023653  0.91175834  0.14541132    -0.39600
O2149       O  0.71894669  0.89310025  0.09397849    -0.39600
C2150       C  0.67391331  0.85779047  0.22822271    -0.11900
C2151       C  0.65858895  0.82883963  0.20891238     0.05100
C2152       C  0.63432269  0.80883239  0.23011138    -0.07200
C2153       C  0.63941397  0.80572859  0.26787468    -0.08000
C2154       C  0.65998564  0.83014495  0.28787501    -0.02500
C2155       C  0.67328393  0.85974788  0.26654224     0.04300
N2156       N  0.68782719  0.89113457  0.28281643     0.66800
H2157       H  0.68694776  0.87909279  0.21333429     0.15700
H2158       H  0.62366482  0.78646912  0.28143190     0.15400
N2159       N  0.59956063  0.80367826  0.21745885     0.74500
O2160       O  0.67034875  0.91934102  0.28311108    -0.38900
O2161       O  0.72007956  0.89391501  0.28649644    -0.38900
O2162       O  0.57827484  0.78465985  0.23538572    -0.39600
O2163       O  0.58755130  0.82570674  0.19504951    -0.39600
C2164       C  0.72724342  0.85492090  0.35863397    -0.11900
C2165       C  0.70968494  0.83227462  0.33349298     0.05100
C2166       C  0.73158783  0.81205968  0.31201437    -0.07200
C2167       C  0.76686353  0.81439319  0.31451110    -0.08000
C2168       C  0.78547155  0.83463760  0.33858956    -0.02500
C2169       C  0.76461300  0.85560703  0.36216421     0.04300
N2170       N  0.77977177  0.87631853  0.39034323     0.66800
H2171       H  0.71227644  0.87148055  0.37618935     0.15700
H2172       H  0.78102266  0.79923884  0.29620454     0.15400
N2173       N  0.71900998  0.79314693  0.28225717     0.74500
O2174       O  0.76871210  0.90722654  0.39671433    -0.38900
O2175       O  0.79859798  0.86126404  0.41333095    -0.38900
O2176       O  0.70492636  0.76254428  0.28467138    -0.39600
O2177       O  0.72050307  0.80925395  0.25284315    -0.39600
C2178       C  0.67708999  0.63007404  0.27297175    -0.11900
C2179       C  0.66826111  0.66142272  0.29209828     0.05100
C2180       C  0.65419024  0.68850172  0.27008228    -0.07200
C2181       C  0.66560761  0.69165141  0.23433377    -0.08000
C2182       C  0.67458915  0.66125998  0.21357535    -0.02500
C2183       C  0.67690809  0.62858238  0.23464643     0.04300
N2184       N  0.68258854  0.59440101  0.21856774     0.66800
H2185       H  0.68472198  0.60648922  0.28784704     0.15700
H2186       H  0.66497187  0.71841493  0.22347269     0.15400
N2187       N  0.61905908  0.69859785  0.27555343     0.74500
O2188       O  0.71254175  0.58594715  0.20891435    -0.38900
O2189       O  0.66038012  0.56965602  0.22357561    -0.38900
O2190       O  0.60777759  0.72572553  0.25932665    -0.39600
O2191       O  0.59746612  0.67556672  0.28739946    -0.39600
C2192       C  0.73475195  0.68533305  0.31907746    -0.11900
C2193       C  0.71625410  0.65883479  0.33671481     0.05100
C2194       C  0.73694656  0.63223650  0.35412859    -0.07200
C2195       C  0.77436519  0.63624106  0.35463434    -0.08000
C2196       C  0.79242371  0.66599278  0.33799950    -0.02500
C2197       C  0.76911145  0.69230048  0.32513012     0.04300
N2198       N  0.77802328  0.72849400  0.31949170     0.66800
H2199       H  0.72087425  0.70555021  0.30467132     0.15700
H2200       H  0.78866770  0.61627691  0.36889341     0.15400
N2201       N  0.72158821  0.59993584  0.36840377     0.74500
O2202       O  0.76438117  0.74951910  0.34123152    -0.38900
O2203       O  0.78391726  0.73931373  0.28801025    -0.38900
O2204       O  0.70642979  0.57858228  0.34744162    -0.39600
O2205       O  0.73022764  0.58875792  0.39909125    -0.39600
C2206       C  0.63635838  0.72195612  0.34392499    -0.11900
C2207       C  0.66851601  0.70534831  0.34894175     0.05100
C2208       C  0.69275635  0.72861755  0.36682380    -0.07200
C2209       C  0.69049678  0.76585465  0.36202828    -0.08000
C2210       C  0.66325994  0.78299767  0.34364393    -0.02500
C2211       C  0.63283701  0.76023402  0.34159304     0.04300
N2212       N  0.59849663  0.77420459  0.33806356     0.66800
H2213       H  0.61373593  0.70489584  0.34194701     0.15700
H2214       H  0.71031912  0.78161433  0.37509815     0.15400
N2215       N  0.71300046  0.71756995  0.39724201     0.74500
O2216       O  0.57441600  0.75469614  0.32583906    -0.38900
O2217       O  0.59101114  0.80432659  0.35050544    -0.38900
O2218       O  0.74091445  0.70135169  0.39342124    -0.39600
O2219       O  0.70773121  0.73253882  0.42695083    -0.39600
C2220       C  0.62883692  0.61519564  0.33903476    -0.11900
C2221       C  0.65328225  0.63783359  0.35652337     0.05100
C2222       C  0.65335188  0.63584479  0.39480064    -0.07200
C2223       C  0.63087164  0.61245410  0.41323693    -0.08000
C2224       C  0.60683756  0.59131828  0.39533172    -0.02500
C2225       C  0.60622274  0.59221658  0.35777738     0.04300
N2226       N  0.58084304  0.57236234  0.33812515     0.66800
H2227       H  0.62502315  0.61579424  0.31050825     0.15700
H2228       H  0.63112553  0.61228351  0.44233457     0.15400
N2229       N  0.67244602  0.66003463  0.41651274     0.74500
O2230       O  0.55216927  0.58636996  0.33134114    -0.38900
O2231       O  0.58949782  0.54452641  0.32168362    -0.38900
O2232       O  0.65563433  0.68359185  0.43280587    -0.39600
O2233       O  0.70010813  0.64932701  0.43036271    -0.39600
C2234       C  0.62095830  0.86656350  0.08478451    -0.11900
C2235       C  0.60282204  0.89406918  0.10112188     0.05100
C2236       C  0.60797495  0.90032679  0.13781440    -0.07200
C2237       C  0.62928120  0.87803508  0.15764919    -0.08000
C2238       C  0.64651772  0.84872925  0.14232333    -0.02500
C2239       C  0.64316894  0.84456647  0.10442334     0.04300
N2240       N  0.66131596  0.81802354  0.08493581     0.66800
H2241       H  0.61798353  0.86202597  0.05629249     0.15700
H2242       H  0.63095881  0.88408002  0.18569985     0.15400
N2243       N  0.59040208  0.92810788  0.15618324     0.74500
O2244       O  0.64443565  0.79262768  0.07082707    -0.38900
O2245       O  0.69119619  0.82547694  0.07319530    -0.38900
O2246       O  0.56100876  0.92163808  0.16970977    -0.39600
O2247       O  0.60677754  0.95622088  0.16486128    -0.39600
C2248       C  0.89214323  0.66244398  0.12436580    -0.11900
C2249       C  0.86765524  0.64718751  0.14852264     0.05100
C2250       C  0.86701982  0.60904627  0.15245570    -0.07200
C2251       C  0.88816761  0.58814038  0.13077989    -0.08000
C2252       C  0.91026366  0.60387213  0.10507980    -0.02500
C2253       C  0.91260564  0.64145852  0.10248428     0.04300
N2254       N  0.93653065  0.65905999  0.07856533     0.66800
H2255       H  0.89578453  0.69106762  0.12143114     0.15700
H2256       H  0.88664269  0.55919605  0.13358475     0.15400
N2257       N  0.84420475  0.59056234  0.17697535     0.74500
O2258       O  0.92583538  0.67256755  0.04957858    -0.38900
O2259       O  0.96640920  0.66715514  0.08948108    -0.38900
O2260       O  0.81712625  0.57594270  0.16483160    -0.39600
O2261       O  0.85622291  0.57877665  0.20612396    -0.39600
C2262       C  0.63423739  0.61825589  0.08951842    -0.11900
C2263       C  0.60922650  0.59653837  0.10652291     0.05100
C2264       C  0.60836000  0.59736055  0.14430181    -0.07200
C2265       C  0.63205103  0.61905329  0.16367146    -0.08000
C2266       C  0.65940246  0.63981027  0.14743100    -0.02500
C2267       C  0.65794974  0.64035914  0.10855693     0.04300
N2268       N  0.67507289  0.66719277  0.08695323     0.66800
H2269       H  0.63414334  0.61985076  0.06046786     0.15800
H2270       H  0.62669662  0.62081566  0.19190355     0.15400
N2271       N  0.58161446  0.57859552  0.16368374     0.74500
O2272       O  0.69406532  0.65690249  0.06158476    -0.38900
O2273       O  0.65999630  0.69664236  0.08277279    -0.38900
O2274       O  0.58763903  0.54852659  0.17794399    -0.39600
O2275       O  0.55422276  0.59455469  0.17157007    -0.39600
C2276       C  0.87317132  0.91308764  0.37734737    -0.11900
C2277       C  0.89454963  0.89568665  0.40190070     0.05100
C2278       C  0.89370390  0.85810565  0.40356179    -0.07200
C2279       C  0.87272894  0.83882526  0.38025017    -0.08000
C2280       C  0.84925836  0.85544006  0.35652714    -0.02500
C2281       C  0.85076517  0.89381254  0.35480925     0.04300
N2282       N  0.83358535  0.91387531  0.32751935     0.66800
H2283       H  0.87454671  0.94205761  0.37479094     0.15700
H2284       H  0.87654934  0.81038375  0.38084721     0.15400
N2285       N  0.91556273  0.83864259  0.42734492     0.74500
O2286       O  0.85088066  0.92463582  0.30056681    -0.38900
O2287       O  0.80625344  0.92994056  0.33526306    -0.38900
O2288       O  0.90373097  0.82750838  0.45711397    -0.39600
O2289       O  0.94371322  0.82665409  0.41585517    -0.39600
C2290       C  0.87832163  0.58578568  0.37494667    -0.11900
C2291       C  0.90050217  0.60167255  0.40021105     0.05100
C2292       C  0.89917574  0.63907597  0.40422109    -0.07200
C2293       C  0.87808066  0.65973803  0.38201876    -0.08000
C2294       C  0.85571830  0.64467988  0.35588886    -0.02500
C2295       C  0.85566011  0.60621009  0.35341514     0.04300
N2296       N  0.83281523  0.58671585  0.33000826     0.66800
H2297       H  0.87851245  0.55695038  0.37177891     0.15700
H2298       H  0.88021735  0.68822500  0.38597460     0.15400
N2299       N  0.91993290  0.65713626  0.43022907     0.74500
O2300       O  0.81342476  0.56243309  0.34335473    -0.38900
O2301       O  0.83909749  0.58569383  0.29685620    -0.38900
O2302       O  0.94652766  0.67460724  0.42025179    -0.39600
O2303       O  0.90820654  0.66132839  0.46150261    -0.39600
C2304       C  0.62308723  0.86899964  0.41230503    -0.11900
C2305       C  0.60139599  0.89368112  0.39553978     0.05100
C2306       C  0.60302563  0.89697082  0.35793887    -0.07200
C2307       C  0.62506495  0.87533762  0.33807361    -0.08000
C2308       C  0.64729866  0.84998511  0.35417234    -0.02500
C2309       C  0.64580316  0.84749030  0.39256139     0.04300
N2310       N  0.66449763  0.82121177  0.41232528     0.66800
H2311       H  0.62199426  0.86575554  0.44121635     0.15700
H2312       H  0.62269268  0.87787808  0.30942289     0.15400
N2313       N  0.58049477  0.92032005  0.33889341     0.74500
O2314       O  0.69183449  0.83065051  0.42815800    -0.38900
O2315       O  0.64842293  0.79349543  0.42347664    -0.38900
O2316       O  0.59229030  0.94919807  0.32533008    -0.39600
O2317       O  0.55065172  0.90932847  0.33050886    -0.39600
C2318       C  0.88430293  0.91058201  0.13386011    -0.11900
C2319       C  0.89213883  0.89789379  0.09997547     0.05100
C2320       C  0.87385178  0.86733258  0.08786984    -0.07200
C2321       C  0.85030989  0.84897296  0.11089616    -0.08000
C2322       C  0.84463982  0.85950676  0.14687934    -0.02500
C2323       C  0.86065944  0.89313414  0.15672705     0.04300
N2324       N  0.85086077  0.91362464  0.18708384     0.66800
H2325       H  0.89634892  0.93526819  0.14302789     0.15700
H2326       H  0.83740520  0.82547770  0.10049242     0.15400
N2327       N  0.87898520  0.85422650  0.05244817     0.74500
O2328       O  0.87117787  0.91477555  0.21343648    -0.38900
O2329       O  0.83314155  0.94102140  0.18077041    -0.38900
O2330       O  0.89853920  0.82803557  0.04756437    -0.39600
O2331       O  0.85941920  0.86433723  0.02748312    -0.39600
N2332       N  0.96091150  0.95370188  0.56660304    -0.05800
N2333       N  0.93593222  0.94720931  0.59008532    -0.57900
N2334       N  0.53933834  0.92786501  0.54248916    -0.05500
N2335       N  0.56266610  0.90351713  0.54993223    -0.60000
N2336       N  0.53948111  0.95274663  0.56723801    -0.05100
N2337       N  0.56280959  0.94587098  0.59182897    -0.57900
N2338       N  0.96079294  0.92856696  0.54212413    -0.04700
N2339       N  0.93574288  0.90469952  0.54841392    -0.60400
C2340       C  0.92019738  0.91670221  0.57838659     0.96400
C2341       C  0.57722222  0.91521070  0.58074953     0.96200
N2342       N  0.53898193  0.95147307  0.93078159    -0.06000
N2343       N  0.56199057  0.94447662  0.90565894    -0.58500
N2344       N  0.95952951  0.92887058  0.95892605    -0.04100
N2345       N  0.93520195  0.90458335  0.95283121    -0.59700
N2346       N  0.95906634  0.95420932  0.93415942    -0.06000
N2347       N  0.93447455  0.94760984  0.91062612    -0.58700
N2348       N  0.53969129  0.92683810  0.95628381    -0.03700
N2349       N  0.56319953  0.90260291  0.94890445    -0.59800
Mn2350     Mn  0.99978545  0.92729210  0.00025965     1.18400
C2351       C  0.57712507  0.91397477  0.91720036     0.98500
C2352       C  0.91963747  0.91662811  0.92273141     0.99100
N2353       N  0.54369071  0.53825049  0.56885614    -0.06000
N2354       N  0.56573349  0.54590789  0.59496826    -0.62300
N2355       N  0.96772067  0.56457198  0.54240928    -0.04800
N2356       N  0.94737190  0.59114593  0.55074258    -0.63000
N2357       N  0.96589787  0.53917515  0.56715832    -0.05500
N2358       N  0.94427484  0.54804809  0.59288939    -0.62600
N2359       N  0.54556809  0.56302683  0.54336890    -0.04400
N2360       N  0.56920826  0.58778139  0.55185233    -0.63300
Mn2361     Mn  0.50215971  0.49579683  0.56845900     1.10700
C2362       C  0.58188481  0.57681332  0.58414447     0.99700
C2363       C  0.93282213  0.58048834  0.58218589     0.99800
N2364       N  0.96153794  0.53869995  0.93276248    -0.05500
N2365       N  0.93771872  0.54683134  0.90876765    -0.60900
N2366       N  0.54470815  0.56002153  0.95622295    -0.04800
N2367       N  0.57004929  0.58279231  0.94829066    -0.57600
N2368       N  0.54179091  0.53564522  0.93111118    -0.06200
N2369       N  0.56499555  0.54126999  0.90567328    -0.60500
N2370       N  0.96404372  0.56396644  0.95707763    -0.05100
N2371       N  0.94193987  0.58965736  0.94987766    -0.57700
Mn2372     Mn  0.00004891  0.99539085  0.93151394     1.20200
Mn2373     Mn  0.50498443  0.56413730  0.49992837     1.10100
Cl2374     Cl  0.50162041  0.49577643  0.50007963    -0.85600
C2375       C  0.92547345  0.57870427  0.91976100     0.96700
C2376       C  0.58249554  0.57060816  0.91682300     0.96500
C2377       C  0.67716046  0.66446237  0.83426303    -0.02100
C2378       C  0.67037633  0.82353959  0.83055648    -0.02100
C2379       C  0.66761677  0.82352710  0.66695576    -0.02100
C2380       C  0.68395233  0.66549706  0.67109771    -0.02100
C2381       C  0.83507628  0.66948231  0.82907435    -0.02100
C2382       C  0.84156681  0.67040774  0.66695393    -0.02100
C2383       C  0.82539010  0.83197646  0.67252805    -0.02100
C2384       C  0.82740192  0.83136948  0.83043291    -0.02100
C2385       C  0.86324433  0.84083643  0.73170852    -0.11900
C2386       C  0.83191353  0.84578918  0.71276521     0.05100
C2387       C  0.80706785  0.86528758  0.73360216    -0.07200
C2388       C  0.80807353  0.86372394  0.77113697    -0.08000
C2389       C  0.83402337  0.84557876  0.79006747    -0.02500
C2390       C  0.86502425  0.84292303  0.76983797     0.04300
N2391       N  0.89785953  0.84146587  0.78718482     0.66800
H2392       H  0.88698547  0.83920917  0.71733805     0.15700
H2393       H  0.78728938  0.87622941  0.78541851     0.15400
N2394       N  0.78027030  0.88655757  0.71861574     0.74500
O2395       O  0.91704440  0.81495839  0.78238793    -0.38900
O2396       O  0.91098193  0.87005000  0.79927144    -0.38900
O2397       O  0.75004350  0.87389010  0.72034582    -0.39600
O2398       O  0.78354343  0.92014753  0.72072292    -0.39600
C2399       C  0.87221114  0.73501565  0.67220108    -0.11900
C2400       C  0.84696507  0.71270584  0.65550298     0.05100
C2401       C  0.82581444  0.73262716  0.63171809    -0.07200
C2402       C  0.81845542  0.76937409  0.63933374    -0.08000
C2403       C  0.83772823  0.79079165  0.66403567    -0.02500
C2404       C  0.86955774  0.77349723  0.67354520     0.04300
N2405       N  0.90076861  0.79340926  0.67957369     0.66800
H2406       H  0.89412140  0.72236918  0.68462830     0.15700
H2407       H  0.79895986  0.78219224  0.62327373     0.15400
N2408       N  0.81836058  0.71944043  0.59643945     0.74500
O2409       O  0.92164066  0.78298006  0.70325205    -0.38900
O2410       O  0.91097177  0.81624610  0.65645946    -0.38900
O2411       O  0.79719039  0.73563292  0.57669567    -0.39600
O2412       O  0.83976968  0.69935460  0.58144716    -0.39600
C2413       C  0.81895013  0.67378527  0.76408769    -0.11900
C2414       C  0.84309848  0.66122212  0.78756388     0.05100
C2415       C  0.87367046  0.64835168  0.76886510    -0.07200
C2416       C  0.87501842  0.64914641  0.72955498    -0.08000
C2417       C  0.84978280  0.66826178  0.70917729    -0.02500
C2418       C  0.82709327  0.68578232  0.73091406     0.04300
N2419       N  0.81328037  0.71811113  0.72080536     0.66800
H2420       H  0.79349153  0.67978723  0.77091998     0.15700
H2421       H  0.89616578  0.63655695  0.71581457     0.15400
N2422       N  0.90215225  0.63331422  0.78782676     0.74500
O2423       O  0.79146713  0.71889756  0.69612949    -0.38900
O2424       O  0.83024779  0.74554896  0.72965223    -0.38900
O2425       O  0.90929900  0.60084917  0.78307614    -0.39600
O2426       O  0.92526881  0.65382375  0.80017155    -0.39600
C2427       C  0.83269199  0.72949421  0.86649558    -0.11900
C2428       C  0.84488656  0.71095282  0.83595714     0.05100
C2429       C  0.86069697  0.73342278  0.80966770    -0.07200
C2430       C  0.85227331  0.76977083  0.80694170    -0.08000
C2431       C  0.83624455  0.78909245  0.83475552    -0.02500
C2432       C  0.82892773  0.76765892  0.86653820     0.04300
N2433       N  0.81469743  0.78313864  0.89817384     0.66800
H2434       H  0.82254325  0.71403089  0.88907005     0.15700
H2435       H  0.85987792  0.78166832  0.78215739     0.15400
N2436       N  0.89173396  0.72294497  0.79223331     0.74500
O2437       O  0.78235133  0.78430111  0.90166409    -0.38900
O2438       O  0.83297283  0.78434768  0.92607775    -0.38900
O2439       O  0.89484186  0.72737532  0.75877557    -0.39600
O2440       O  0.91878708  0.72235432  0.81092874    -0.39600
C2441       C  0.74277035  0.65048444  0.63394822    -0.11900
C2442       C  0.72526725  0.65611462  0.66730280     0.05100
C2443       C  0.74871965  0.65082678  0.69685225    -0.07200
C2444       C  0.78319795  0.64139274  0.69116633    -0.08000
C2445       C  0.80168542  0.65507893  0.66143876    -0.02500
C2446       C  0.78018916  0.65240430  0.63012596     0.04300
N2447       N  0.79457146  0.64459962  0.59566034     0.66800
H2448       H  0.72791446  0.64610290  0.61038516     0.15700
H2449       H  0.79673905  0.62972312  0.71350036     0.15400
N2450       N  0.74102606  0.65876029  0.73311677     0.74500
O2451       O  0.77933673  0.65488737  0.56760644    -0.38900
O2452       O  0.81674578  0.62044130  0.59300608    -0.38900
O2453       O  0.74862178  0.63633318  0.75738232    -0.39600
O2454       O  0.73681644  0.69102261  0.74131239    -0.39600
C2455       C  0.68897344  0.76589666  0.63485024    -0.11900
C2456       C  0.66206483  0.78211602  0.65399383     0.05100
C2457       C  0.63427726  0.75715015  0.66092498    -0.07200
C2458       C  0.64145684  0.71953647  0.66389159    -0.08000
C2459       C  0.67525785  0.70568642  0.65869566    -0.02500
C2460       C  0.69733088  0.72996147  0.63956867     0.04300
N2461       N  0.72852120  0.72002130  0.62338442     0.66800
H2462       H  0.70770735  0.78214578  0.62015325     0.15700
H2463       H  0.62077599  0.70100978  0.67141946     0.15400
N2464       N  0.59908815  0.76702940  0.65519725     0.74500
O2465       O  0.73002706  0.71856068  0.58962731    -0.38900
O2466       O  0.75549262  0.72763135  0.64022658    -0.38900
O2467       O  0.59210420  0.78981970  0.63115828    -0.39600
O2468       O  0.57481803  0.74777434  0.66809734    -0.39600
C2469       C  0.72693266  0.80663404  0.68261756    -0.11900
C2470       C  0.70828766  0.83149440  0.66371842     0.05100
C2471       C  0.72876369  0.85765163  0.64425857    -0.07200
C2472       C  0.76606780  0.85625329  0.64484931    -0.08000
C2473       C  0.78426394  0.83151382  0.66721368    -0.02500
C2474       C  0.76235451  0.80669964  0.68679042     0.04300
N2475       N  0.77353856  0.78340613  0.71492068     0.66800
H2476       H  0.71193672  0.78590615  0.69623150     0.15700
H2477       H  0.78057593  0.87660393  0.63002436     0.15400
N2478       N  0.71315184  0.88739326  0.62659060     0.74500
O2479       O  0.75377833  0.75801601  0.72531381    -0.38900
O2480       O  0.79396742  0.79538006  0.73768403    -0.38900
O2481       O  0.70086305  0.91208696  0.64534276    -0.39600
O2482       O  0.71976311  0.89363123  0.59391757    -0.39600
C2483       C  0.67486677  0.85786595  0.72880876    -0.11900
C2484       C  0.65912087  0.82928750  0.70935318     0.05100
C2485       C  0.63494167  0.80917234  0.73061253    -0.07200
C2486       C  0.64008013  0.80584562  0.76839248    -0.08000
C2487       C  0.66120973  0.82974131  0.78836912    -0.02500
C2488       C  0.67474685  0.85935586  0.76716013     0.04300
N2489       N  0.69005944  0.89027910  0.78359909     0.66800
H2490       H  0.68786841  0.87923330  0.71398809     0.15700
H2491       H  0.62399040  0.78693476  0.78209541     0.15400
N2492       N  0.60024562  0.80383602  0.71792524     0.74500
O2493       O  0.67299278  0.91872390  0.78482274    -0.38900
O2494       O  0.72240860  0.89254235  0.78656428    -0.38900
O2495       O  0.57933549  0.78382591  0.73524018    -0.39600
O2496       O  0.58784560  0.82637719  0.69627801    -0.39600
C2497       C  0.72876748  0.85385265  0.85874922    -0.11900
C2498       C  0.71099719  0.83129996  0.83371272     0.05100
C2499       C  0.73269071  0.81108950  0.81195195    -0.07200
C2500       C  0.76799745  0.81362463  0.81393267    -0.08000
C2501       C  0.78680110  0.83379632  0.83791345    -0.02500
C2502       C  0.76614975  0.85455159  0.86188718     0.04300
N2503       N  0.78153249  0.87507339  0.89008021     0.66800
H2504       H  0.71395604  0.87035357  0.87649927     0.15700
H2505       H  0.78200811  0.79860840  0.79536960     0.15400
N2506       N  0.71982432  0.79204650  0.78237363     0.74500
O2507       O  0.77056471  0.90596212  0.89670426    -0.38900
O2508       O  0.80041256  0.85983464  0.91289564    -0.38900
O2509       O  0.70524212  0.76171547  0.78509822    -0.39600
O2510       O  0.72094785  0.80809288  0.75291736    -0.39600
C2511       C  0.67762882  0.62969242  0.77240785    -0.11900
C2512       C  0.66897689  0.66084987  0.79193378     0.05100
C2513       C  0.65438721  0.68794811  0.77034993    -0.07200
C2514       C  0.66521656  0.69149426  0.73442398    -0.08000
C2515       C  0.67425431  0.66137431  0.71328746    -0.02500
C2516       C  0.67685840  0.62850845  0.73405696     0.04300
N2517       N  0.68214247  0.59442327  0.71760844     0.66800
H2518       H  0.68554913  0.60601687  0.78697766     0.15700
H2519       H  0.66405550  0.71830468  0.72379452     0.15400
N2520       N  0.61924634  0.69756423  0.77649154     0.74500
O2521       O  0.71183624  0.58597703  0.70711949    -0.38900
O2522       O  0.65996723  0.56970084  0.72288791    -0.38900
O2523       O  0.60775667  0.72544601  0.76182880    -0.39600
O2524       O  0.59786668  0.67400234  0.78769692    -0.39600
C2525       C  0.73571202  0.68457823  0.81839510    -0.11900
C2526       C  0.71739369  0.65802899  0.83613808     0.05100
C2527       C  0.73825234  0.63149799  0.85345777    -0.07200
C2528       C  0.77565119  0.63562133  0.85371007    -0.08000
C2529       C  0.79350786  0.66535492  0.83683756    -0.02500
C2530       C  0.77008309  0.69162240  0.82424535     0.04300
N2531       N  0.77894950  0.72778076  0.81854652     0.66800
H2532       H  0.72171459  0.70476332  0.80409883     0.15700
H2533       H  0.79008119  0.61580488  0.86802005     0.15400
N2534       N  0.72308739  0.59919904  0.86796645     0.74500
O2535       O  0.76571758  0.74877398  0.84058861    -0.38900
O2536       O  0.78429171  0.73859649  0.78696302    -0.38900
O2537       O  0.70747845  0.57792855  0.84726712    -0.39600
O2538       O  0.73231115  0.58791746  0.89842811    -0.39600
C2539       C  0.63761662  0.72116104  0.84426567    -0.11900
C2540       C  0.66979556  0.70451681  0.84900191     0.05100
C2541       C  0.69413975  0.72772447  0.86685388    -0.07200
C2542       C  0.69175635  0.76501610  0.86237158    -0.08000
C2543       C  0.66448264  0.78224850  0.84408508    -0.02500
C2544       C  0.63406645  0.75946561  0.84205490     0.04300
N2545       N  0.59967126  0.77343464  0.83909362     0.66800
H2546       H  0.61499597  0.70406940  0.84237112     0.15700
H2547       H  0.71159705  0.78073883  0.87546471     0.15400
N2548       N  0.71469859  0.71649412  0.89698298     0.74500
O2549       O  0.57521544  0.75364680  0.82813973    -0.38900
O2550       O  0.59255344  0.80386680  0.85101859    -0.38900
O2551       O  0.74256331  0.70028683  0.89276868    -0.39600
O2552       O  0.70972548  0.73126062  0.92685117    -0.39600
C2553       C  0.63037220  0.61403418  0.83906190    -0.11900
C2554       C  0.65469595  0.63688610  0.85644085     0.05100
C2555       C  0.65501952  0.63480592  0.89471889    -0.07200
C2556       C  0.63274390  0.61127894  0.91325171    -0.08000
C2557       C  0.60878113  0.58998409  0.89543798    -0.02500
C2558       C  0.60809226  0.59079441  0.85788676     0.04300
N2559       N  0.58297178  0.57051485  0.83831017     0.66800
H2560       H  0.62641685  0.61457867  0.81056500     0.15700
H2561       H  0.63308548  0.61112608  0.94234834     0.15400
N2562       N  0.67418385  0.65899098  0.91636791     0.74500
O2563       O  0.55443942  0.58440423  0.83067884    -0.38900
O2564       O  0.59177150  0.54216858  0.82285110    -0.38900
O2565       O  0.65742156  0.68255699  0.93270174    -0.39600
O2566       O  0.70185421  0.64824387  0.93017353    -0.39600
C2567       C  0.62075785  0.86729368  0.58541992    -0.11900
C2568       C  0.60264473  0.89475153  0.60183531     0.05100
C2569       C  0.60818605  0.90116178  0.63847147    -0.07200
C2570       C  0.62957815  0.87881945  0.65824579    -0.08000
C2571       C  0.64676121  0.84955409  0.64279215    -0.02500
C2572       C  0.64323728  0.84545225  0.60488834     0.04300
N2573       N  0.66136022  0.81901129  0.58523336     0.66800
H2574       H  0.61755983  0.86266647  0.55697012     0.15700
H2575       H  0.63162059  0.88489375  0.68628379     0.15400
N2576       N  0.59116880  0.92935378  0.65676532     0.74500
O2577       O  0.64443703  0.79381064  0.57084019    -0.38900
O2578       O  0.69127961  0.82647514  0.57361344    -0.38900
O2579       O  0.56400800  0.92238224  0.67448767    -0.39600
O2580       O  0.60672049  0.95900272  0.66105615    -0.39600
C2581       C  0.89150075  0.66178762  0.62274346    -0.11900
C2582       C  0.86692522  0.64637269  0.64669341     0.05100
C2583       C  0.86658724  0.60825546  0.65077229    -0.07200
C2584       C  0.88843947  0.58748979  0.62972377    -0.08000
C2585       C  0.91081150  0.60336167  0.60436857    -0.02500
C2586       C  0.91259111  0.64095439  0.60141256     0.04300
N2587       N  0.93646764  0.65876437  0.57758638     0.66800
H2588       H  0.89477381  0.69042380  0.61954489     0.15700
H2589       H  0.88725271  0.55855195  0.63271913     0.15400
N2590       N  0.84349082  0.58967276  0.67492390     0.74500
O2591       O  0.92619048  0.66993031  0.54746436    -0.38900
O2592       O  0.96516707  0.66976878  0.58941479    -0.38900
O2593       O  0.81669046  0.57487132  0.66235294    -0.39600
O2594       O  0.85501586  0.57819048  0.70441314    -0.39600
C2595       C  0.63283418  0.61978823  0.58914504    -0.11900
C2596       C  0.60818339  0.59765427  0.60617593     0.05100
C2597       C  0.60766626  0.59800934  0.64396761    -0.07200
C2598       C  0.63143978  0.61957058  0.66333976    -0.08000
C2599       C  0.65847995  0.64069770  0.64704227    -0.02500
C2600       C  0.65657412  0.64182118  0.60820120     0.04300
N2601       N  0.67321467  0.66913465  0.58679464     0.66800
H2602       H  0.63243379  0.62173805  0.56011661     0.15800
H2603       H  0.62633536  0.62099100  0.69164235     0.15400
N2604       N  0.58118708  0.57888288  0.66340933     0.74500
O2605       O  0.69207241  0.65941912  0.56108225    -0.38900
O2606       O  0.65778886  0.69845854  0.58319028    -0.38900
O2607       O  0.58841677  0.55071221  0.68063926    -0.39600
O2608       O  0.55221380  0.59307116  0.66799371    -0.39600
C2609       C  0.87341252  0.91266086  0.87675769    -0.11900
C2610       C  0.89433882  0.89543820  0.90185527     0.05100
C2611       C  0.89368959  0.85784527  0.90355965    -0.07200
C2612       C  0.87368762  0.83839699  0.87947786    -0.08000
C2613       C  0.85042680  0.85482901  0.85544449    -0.02500
C2614       C  0.85156293  0.89320393  0.85382494     0.04300
N2615       N  0.83433031  0.91315197  0.82649325     0.66800
H2616       H  0.87460174  0.94163768  0.87421616     0.15700
H2617       H  0.87778475  0.81000130  0.87999200     0.15400
N2618       N  0.91441924  0.83856893  0.92857848     0.74500
O2619       O  0.85164639  0.92421290  0.79967301    -0.38900
O2620       O  0.80667519  0.92871852  0.83405619    -0.38900
O2621       O  0.90146785  0.82848314  0.95821134    -0.39600
O2622       O  0.94273542  0.82583101  0.91847200    -0.39600
C2623       C  0.87832127  0.58511840  0.87372213    -0.11900
C2624       C  0.90086395  0.60106388  0.89857830     0.05100
C2625       C  0.90088448  0.63860068  0.90142784    -0.07200
C2626       C  0.87999424  0.65925666  0.87912363    -0.08000
C2627       C  0.85689128  0.64411983  0.85375534    -0.02500
C2628       C  0.85624991  0.60563042  0.85168711     0.04300
N2629       N  0.83352873  0.58625434  0.82803778     0.66800
H2630       H  0.87786644  0.55620271  0.87119183     0.15700
H2631       H  0.88307367  0.68779142  0.88221841     0.15400
N2632       N  0.92324081  0.65677981  0.92590860     0.74500
O2633       O  0.81361768  0.56234060  0.84121854    -0.38900
O2634       O  0.84051814  0.58469566  0.79506465    -0.38900
O2635       O  0.95129594  0.67054362  0.91467088    -0.39600
O2636       O  0.91213161  0.66479362  0.95660080    -0.39600
C2637       C  0.62419350  0.86846641  0.91269790    -0.11900
C2638       C  0.60278862  0.89342016  0.89583073     0.05100
C2639       C  0.60497378  0.89697946  0.85829008    -0.07200
C2640       C  0.62679936  0.87505189  0.83854272    -0.08000
C2641       C  0.64874128  0.84944587  0.85468093    -0.02500
C2642       C  0.64707940  0.84696125  0.89306509     0.04300
N2643       N  0.66594652  0.82087357  0.91291834     0.66800
H2644       H  0.62282033  0.86509373  0.94158339     0.15700
H2645       H  0.62462243  0.87781218  0.80990299     0.15400
N2646       N  0.58343864  0.92122199  0.83911992     0.74500
O2647       O  0.69313968  0.83060819  0.92884724    -0.38900
O2648       O  0.65011151  0.79299801  0.92402871    -0.38900
O2649       O  0.59570576  0.95105055  0.82839987    -0.39600
O2650       O  0.55466190  0.91030964  0.82740629    -0.39600
C2651       C  0.88441328  0.90982409  0.63279232    -0.11900
C2652       C  0.89263254  0.89701211  0.59907104     0.05100
C2653       C  0.87484909  0.86611752  0.58703135    -0.07200
C2654       C  0.85139817  0.84759814  0.61003206    -0.08000
C2655       C  0.84511888  0.85849904  0.64580702    -0.02500
C2656       C  0.86066225  0.89237333  0.65548189     0.04300
N2657       N  0.85003220  0.91319105  0.68527051     0.66800
H2658       H  0.89608546  0.93472320  0.64189368     0.15700
H2659       H  0.83885492  0.82389468  0.59966013     0.15400
N2660       N  0.88022131  0.85299966  0.55163881     0.74500
O2661       O  0.86986398  0.91512325  0.71198048    -0.38900
O2662       O  0.83198832  0.94015767  0.67811847    -0.38900
O2663       O  0.89697311  0.82469342  0.54718899    -0.39600
O2664       O  0.86337705  0.86598550  0.52583811    -0.39600
loop_ 
_geom_bond_atom_site_label_1 
_geom_bond_atom_site_label_2 
_geom_bond_distance 
_geom_bond_site_symmetry_2 
_ccdc_geom_bond_type 
N1            N2   1.320       .  A
N1            N7   1.316       .  A
N1        Mn2028   2.231       .  S
N2            C9   1.359       .  A
N3            N5   1.316       .  A
N3            N4   1.321       .  A
N3        Mn1684   2.204   1_454  S
N4           C10   1.355       .  A
N5            N6   1.316       .  A
N5         Mn696   2.188       .  S
N6           C10   1.349       .  A
N7            N8   1.324       .  A
N7         Mn352   2.196   1_554  S
N8            C9   1.352       .  A
C9          C321   1.494       .  S
C10         C237   1.477       .  S
N11          N17   1.316       .  A
N11          N12   1.322       .  A
N11       Mn1373   2.223       .  S
N12          C20   1.356       .  A
N13          N14   1.319       .  A
N13          N15   1.314       .  A
N13         Mn19   2.200       .  S
N14          C21   1.353       .  A
N15          N16   1.320       .  A
N15         Mn41   2.195       .  S
N16          C21   1.354       .  A
N17          N18   1.325       .  A
N17       Mn1351   2.216       .  S
N18          C20   1.357       .  A
Mn19       N1668   2.202       .  S
Mn19        N340   2.201       .  S
Mn19       N1349   2.221       .  S
Mn19      Cl2374   2.557       .  S
C20         C307   1.499       .  S
C21         C279   1.480       .  S
N22          N23   1.328       .  A
N22          N28   1.319       .  A
N22         Mn30   2.236   1_545  S
N23          C31   1.358       .  A
N24          N26   1.316       .  A
N24          N25   1.318       .  A
N24       Mn1374   2.197   1_554  S
N25          C32   1.352       .  A
N26          N27   1.320       .  A
N26       Mn1362   2.196   1_545  S
N27          C32   1.353       .  A
N28          N29   1.330       .  A
N28         Mn42   2.257   1_554  S
N29          C31   1.362       .  A
Mn30       N1999   2.229   1_455  S
Mn30        N671   2.189       .  S
Mn30       N1358   2.193   1_465  S
Mn30        Cl43   2.547   1_554  S
C31         C265   1.516       .  S
C32         C254   1.477       .  S
N33          N34   1.326       .  A
N33          N39   1.317       .  A
N33        Mn707   2.217   1_545  S
N34          C44   1.356       .  A
N35          N36   1.317       .  A
N35          N37   1.316       .  A
N35        Mn375   2.196       .  S
N36          C45   1.353       .  A
N37          N38   1.316       .  A
N37       Mn2039   2.174   1_545  S
N38          C45   1.347       .  A
N39          N40   1.324       .  A
N39       Mn1707   2.240       .  S
N40          C44   1.358       .  A
Mn41       N1343   2.222       .  S
Mn41        N699   2.216       .  S
Mn41       N2035   2.180       .  S
Mn41      Cl2374   2.552       .  S
Mn42       N1356   2.195   1_456  S
Mn42        N368   2.199       .  S
Mn42       N1704   2.241   1_455  S
Mn42        Cl43   2.550   1_545  S
Cl43      Mn2350   2.556   1_456  S
Cl43      Mn2372   2.551       .  S
C44         C293   1.505       .  S
C45         C226   1.463       .  S
C46         C181   1.617       .  S
C46         C195   1.584       .  S
C46         C209   1.628       .  S
C46         C223   1.559       .  S
C47         C156   1.629       .  S
C47         C167   1.601       .  S
C47         C212   1.628       .  S
C47         C310   1.578       .  S
C48         C125   1.632       .  S
C48         C139   1.602       .  S
C48         C153   1.629       .  S
C48         C240   1.555       .  S
C49         C111   1.650       .  S
C49         C128   1.603       .  S
C49         C184   1.617       .  S
C49         C268   1.618       .  S
C50          C83   1.614       .  S
C50          C97   1.612       .  S
C50         C198   1.640       .  S
C50         C296   1.579       .  S
C51          C69   1.640       .  S
C51          C86   1.610       .  S
C51         C114   1.651       .  S
C51         C251   1.544       .  S
C52          C55   1.610       .  S
C52          C72   1.651       .  S
C52         C142   1.608       .  S
C52         C324   1.581       .  S
C53          C58   1.608       .  S
C53         C100   1.627       .  S
C53         C170   1.601       .  S
C53         C282   1.562       .  S
C54          C55   1.421       .  A
C54          C59   1.426       .  A
C54          H61   1.065       .  S
C55          C56   1.446       .  A
C56          C57   1.401       .  A
C56          N63   1.430       .  S
C57          C58   1.412       .  A
C57          H62   1.080       .  S
C58          C59   1.421       .  A
C59          N60   1.432       .  S
N60          O64   1.262       .  A
N60          O65   1.262       .  A
N63          O67   1.260       .  A
N63          O66   1.257       .  A
C68          C69   1.423       .  A
C68          C73   1.442       .  A
C68          H75   1.082       .  S
C69          C70   1.424       .  A
C70          C71   1.436       .  A
C70          N77   1.438       .  S
C71          C72   1.429       .  A
C71          H76   1.081       .  S
C72          C73   1.446       .  A
C73          N74   1.428       .  S
N74          O78   1.263       .  A
N74          O79   1.262       .  A
N77          O81   1.261       .  A
N77          O80   1.262       .  A
C82          C83   1.371       .  A
C82          C87   1.346       .  A
C82          H89   1.041       .  S
C83          C84   1.464       .  A
C84          C85   1.468       .  A
C84          N91   1.433       .  S
C85          C86   1.436       .  A
C85          H90   1.082       .  S
C86          C87   1.373       .  A
C87          N88   1.378       .  S
N88          O92   1.253       .  A
N88          O93   1.255       .  A
N91          O95   1.260       .  A
N91          O94   1.262       .  A
C96          C97   1.424       .  A
C96         C101   1.434       .  A
C96         H103   1.083       .  S
C97          C98   1.413       .  A
C98          C99   1.404       .  A
C98         N105   1.429       .  S
C99         C100   1.418       .  A
C99         H104   1.058       .  S
C100        C101   1.446       .  A
C101        N102   1.433       .  S
N102        O106   1.261       .  A
N102        O107   1.262       .  A
N105        O109   1.262       .  A
N105        O108   1.261       .  A
C110        C111   1.433       .  A
C110        C115   1.455       .  A
C110        H117   1.064       .  S
C111        C112   1.445       .  A
C112        C113   1.404       .  A
C112        N119   1.419       .  S
C113        C114   1.404       .  A
C113        H118   1.078       .  S
C114        C115   1.440       .  A
C115        N116   1.433       .  S
N116        O120   1.263       .  A
N116        O121   1.261       .  A
N119        O123   1.258       .  A
N119        O122   1.264       .  A
C124        C125   1.410       .  A
C124        C129   1.394       .  A
C124        H131   1.081       .  S
C125        C126   1.431       .  A
C126        C127   1.437       .  A
C126        N133   1.435       .  S
C127        C128   1.430       .  A
C127        H132   1.083       .  S
C128        C129   1.418       .  A
C129        N130   1.406       .  S
N130        O134   1.261       .  A
N130        O135   1.252       .  A
N133        O137   1.263       .  A
N133        O136   1.262       .  A
C138        C139   1.376       .  A
C138        C143   1.383       .  A
C138        H145   1.080       .  S
C139        C140   1.434       .  A
C140        C141   1.448       .  A
C140        N147   1.429       .  S
C141        C142   1.434       .  A
C141        H146   1.082       .  S
C142        C143   1.436       .  A
C143        N144   1.428       .  S
N144        O148   1.264       .  A
N144        O149   1.244       .  A
N147        O151   1.262       .  A
N147        O150   1.262       .  A
C152        C153   1.425       .  A
C152        C157   1.431       .  A
C152        H159   1.081       .  S
C153        C154   1.421       .  A
C154        C155   1.426       .  A
C154        N161   1.440       .  S
C155        C156   1.420       .  A
C155        H160   1.057       .  S
C156        C157   1.442       .  A
C157        N158   1.433       .  S
N158        O162   1.262       .  A
N158        O163   1.261       .  A
N161        O165   1.261       .  A
N161        O164   1.262       .  A
C166        C167   1.434       .  A
C166        C171   1.454       .  A
C166        H173   1.080       .  S
C167        C168   1.402       .  A
C168        C169   1.373       .  A
C168        N175   1.407       .  S
C169        C170   1.378       .  A
C169        H174   1.051       .  S
C170        C171   1.438       .  A
C171        N172   1.432       .  S
N172        O176   1.262       .  A
N172        O177   1.262       .  A
N175        O179   1.245       .  A
N175        O178   1.258       .  A
C180        C181   1.422       .  A
C180        C185   1.429       .  A
C180        H187   1.079       .  S
C181        C182   1.414       .  A
C182        C183   1.406       .  A
C182        N189   1.435       .  S
C183        C184   1.427       .  A
C183        H188   1.074       .  S
C184        C185   1.446       .  A
C185        N186   1.435       .  S
N186        O190   1.261       .  A
N186        O191   1.262       .  A
N189        O193   1.263       .  A
N189        O192   1.259       .  A
C194        C195   1.368       .  A
C194        C199   1.372       .  A
C194        H201   1.074       .  S
C195        C196   1.439       .  A
C196        C197   1.455       .  A
C196        N203   1.432       .  S
C197        C198   1.433       .  A
C197        H202   1.072       .  S
C198        C199   1.428       .  A
C199        N200   1.400       .  S
N200        O204   1.256       .  A
N200        O205   1.255       .  A
N203        O207   1.262       .  A
N203        O206   1.261       .  A
C208        C209   1.415       .  A
C208        C213   1.440       .  A
C208        H215   1.077       .  S
C209        C210   1.437       .  A
C210        C211   1.404       .  A
C210        N217   1.441       .  S
C211        C212   1.420       .  A
C211        H216   1.080       .  S
C212        C213   1.445       .  A
C213        N214   1.445       .  S
N214        O218   1.263       .  A
N214        O219   1.259       .  A
N217        O221   1.264       .  A
N217        O220   1.258       .  A
C222        C223   1.422       .  A
C222        C227   1.393       .  A
C222        H229   1.074       .  S
C223        C224   1.430       .  A
C224        C225   1.395       .  A
C224        N231   1.421       .  S
C225        C226   1.386       .  A
C225        H230   1.085       .  S
C226        C227   1.400       .  A
C227        N228   1.430       .  S
N228        O232   1.262       .  A
N228        O233   1.262       .  A
N231        O235   1.261       .  A
N231        O234   1.263       .  A
C236        C237   1.397       .  A
C236        C241   1.402       .  A
C236        H243   1.084       .  S
C237        C238   1.405       .  A
C238        C239   1.392       .  A
C238        N245   1.430       .  S
C239        C240   1.416       .  A
C239        H244   1.075       .  S
C240        C241   1.430       .  A
C241        N242   1.428       .  S
N242        O246   1.263       .  A
N242        O247   1.261       .  A
N245        O249   1.262       .  A
N245        O248   1.262       .  A
C250        C251   1.413       .  A
C250        C255   1.392       .  A
C250        H257   1.079       .  S
C251        C252   1.428       .  A
C252        C253   1.402       .  A
C252        N259   1.431       .  S
C253        C254   1.399       .  A
C253        H258   1.084       .  S
C254        C255   1.406       .  A
C255        N256   1.429       .  S
N256        O260   1.262       .  A
N256        O261   1.262       .  A
N259        O263   1.262       .  A
N259        O262   1.262       .  A
C264        C265   1.396       .  A
C264        C269   1.419       .  A
C264        H271   1.084       .  S
C265        C266   1.408       .  A
C266        C267   1.416       .  A
C266        N273   1.429       .  S
C267        C268   1.429       .  A
C267        H272   1.076       .  S
C268        C269   1.450       .  A
C269        N270   1.430       .  S
N270        O274   1.264       .  A
N270        O275   1.262       .  A
N273        O277   1.262       .  A
N273        O276   1.262       .  A
C278        C279   1.399       .  A
C278        C283   1.405       .  A
C278        H285   1.084       .  S
C279        C280   1.403       .  A
C280        C281   1.392       .  A
C280        N287   1.430       .  S
C281        C282   1.417       .  A
C281        H286   1.073       .  S
C282        C283   1.433       .  A
C283        N284   1.430       .  S
N284        O288   1.263       .  A
N284        O289   1.261       .  A
N287        O291   1.262       .  A
N287        O290   1.262       .  A
C292        C293   1.407       .  A
C292        C297   1.419       .  A
C292        H299   1.084       .  S
C293        C294   1.406       .  A
C294        C295   1.400       .  A
C294        N301   1.430       .  S
C295        C296   1.422       .  A
C295        H300   1.075       .  S
C296        C297   1.440       .  A
C297        N298   1.440       .  S
N298        O302   1.263       .  A
N298        O303   1.260       .  A
N301        O305   1.262       .  A
N301        O304   1.262       .  A
C306        C307   1.403       .  A
C306        C311   1.413       .  A
C306        H313   1.084       .  S
C307        C308   1.407       .  A
C308        C309   1.401       .  A
C308        N315   1.429       .  S
C309        C310   1.421       .  A
C309        H314   1.075       .  S
C310        C311   1.434       .  A
C311        N312   1.429       .  S
N312        O316   1.262       .  A
N312        O317   1.262       .  A
N315        O319   1.262       .  A
N315        O318   1.262       .  A
C320        C321   1.388       .  A
C320        C325   1.395       .  A
C320        H327   1.084       .  S
C321        C322   1.411       .  A
C322        C323   1.413       .  A
C322        N329   1.428       .  S
C323        C324   1.420       .  A
C323        H328   1.078       .  S
C324        C325   1.441       .  A
C325        N326   1.427       .  S
N326        O330   1.262       .  A
N326        O331   1.262       .  A
N329        O333   1.262       .  A
N329        O332   1.262       .  A
N334        N335   1.321       .  A
N334        N340   1.316       .  A
N334      Mn2361   2.229       .  S
N335        C342   1.358       .  A
N336        N338   1.316       .  A
N336        N337   1.322       .  A
N336      Mn1351   2.207       .  S
N337        C343   1.355       .  A
N338        N339   1.316       .  A
N338      Mn1029   2.190       .  S
N339        C343   1.350       .  A
N340        N341   1.324       .  A
N341        C342   1.353       .  A
C342        C654   1.495       .  S
C343        C570   1.479       .  S
N344        N350   1.315       .  A
N344        N345   1.323       .  A
N344      Mn1706   2.225   1_455  S
N345        C353   1.357       .  A
N346        N347   1.318       .  A
N346        N348   1.314       .  A
N346       Mn352   2.197       .  S
N347        C354   1.352       .  A
N348        N349   1.321       .  A
N348       Mn374   2.196       .  S
N349        C354   1.354       .  A
N350        N351   1.325       .  A
N350      Mn1684   2.212   1_455  S
N351        C353   1.356       .  A
Mn352      N1335   2.201   1_556  S
Mn352      N1682   2.215       .  S
Mn352     Cl2041   2.556       .  S
C353        C640   1.497       .  S
C354        C612   1.480       .  S
N355        N356   1.327       .  A
N355        N361   1.318       .  A
N355       Mn363   2.233   1_545  S
N356        C364   1.357       .  A
N357        N359   1.316       .  A
N357        N358   1.317       .  A
N357      Mn1707   2.191       .  S
N358        C365   1.351       .  A
N359        N360   1.320       .  A
N359      Mn1695   2.196   1_545  S
N360        C365   1.353       .  A
N361        N362   1.330       .  A
N361       Mn375   2.260       .  S
N362        C364   1.363       .  A
Mn363      N2332   2.227   1_455  S
Mn363      N1004   2.188       .  S
Mn363      N1691   2.195   1_465  S
Mn363      Cl376   2.547       .  S
C364        C598   1.516       .  S
C365        C587   1.475       .  S
N366        N367   1.326       .  A
N366        N372   1.318       .  A
N366      Mn1040   2.217   1_545  S
N367        C377   1.356       .  A
N368        N369   1.317       .  A
N368        N370   1.316       .  A
N369        C378   1.353       .  A
N370        N371   1.316       .  A
N370      Mn2372   2.175   1_545  S
N371        C378   1.347       .  A
N372        N373   1.323       .  A
N372      Mn1374   2.241       .  S
N373        C377   1.358       .  A
Mn374      N1676   2.220       .  S
Mn374      N1032   2.218       .  S
Mn374      N2368   2.179       .  S
Mn374     Cl2041   2.552       .  S
Mn375      N1689   2.188   1_455  S
Mn375      N1371   2.240   1_455  S
Mn375      Cl376   2.548   1_545  S
Cl376     Mn2017   2.555       .  S
Cl376     Mn2039   2.551       .  S
C377        C626   1.503       .  S
C378        C559   1.464       .  S
C379        C514   1.615       .  S
C379        C528   1.585       .  S
C379        C542   1.628       .  S
C379        C556   1.560       .  S
C380        C489   1.625       .  S
C380        C500   1.604       .  S
C380        C545   1.620       .  S
C380        C643   1.577       .  S
C381        C458   1.632       .  S
C381        C472   1.601       .  S
C381        C486   1.629       .  S
C381        C573   1.555       .  S
C382        C444   1.651       .  S
C382        C461   1.604       .  S
C382        C517   1.617       .  S
C382        C601   1.619       .  S
C383        C416   1.612       .  S
C383        C430   1.612       .  S
C383        C531   1.640       .  S
C383        C629   1.576       .  S
C384        C402   1.640       .  S
C384        C419   1.608       .  S
C384        C447   1.651       .  S
C384        C584   1.542       .  S
C385        C388   1.613       .  S
C385        C405   1.652       .  S
C385        C475   1.606       .  S
C385        C657   1.582       .  S
C386        C391   1.609       .  S
C386        C433   1.629       .  S
C386        C503   1.603       .  S
C386        C615   1.562       .  S
C387        C388   1.421       .  A
C387        C392   1.427       .  A
C387        H394   1.066       .  S
C388        C389   1.447       .  A
C389        C390   1.401       .  A
C389        N396   1.431       .  S
C390        C391   1.412       .  A
C390        H395   1.081       .  S
C391        C392   1.422       .  A
C392        N393   1.432       .  S
N393        O397   1.262       .  A
N393        O398   1.262       .  A
N396        O400   1.260       .  A
N396        O399   1.257       .  A
C401        C402   1.423       .  A
C401        C406   1.443       .  A
C401        H408   1.082       .  S
C402        C403   1.423       .  A
C403        C404   1.436       .  A
C403        N410   1.439       .  S
C404        C405   1.431       .  A
C404        H409   1.081       .  S
C405        C406   1.447       .  A
C406        N407   1.427       .  S
N407        O411   1.263       .  A
N407        O412   1.262       .  A
N410        O414   1.261       .  A
N410        O413   1.262       .  A
C415        C416   1.370       .  A
C415        C420   1.345       .  A
C415        H422   1.039       .  S
C416        C417   1.463       .  A
C417        C418   1.466       .  A
C417        N424   1.433       .  S
C418        C419   1.435       .  A
C418        H423   1.082       .  S
C419        C420   1.373       .  A
C420        N421   1.377       .  S
N421        O425   1.253       .  A
N421        O426   1.254       .  A
N424        O428   1.260       .  A
N424        O427   1.262       .  A
C429        C430   1.423       .  A
C429        C434   1.435       .  A
C429        H436   1.083       .  S
C430        C431   1.413       .  A
C431        C432   1.404       .  A
C431        N438   1.428       .  S
C432        C433   1.418       .  A
C432        H437   1.059       .  S
C433        C434   1.447       .  A
C434        N435   1.433       .  S
N435        O439   1.261       .  A
N435        O440   1.262       .  A
N438        O442   1.262       .  A
N438        O441   1.261       .  A
C443        C444   1.433       .  A
C443        C448   1.456       .  A
C443        H450   1.064       .  S
C444        C445   1.446       .  A
C445        C446   1.403       .  A
C445        N452   1.419       .  S
C446        C447   1.403       .  A
C446        H451   1.078       .  S
C447        C448   1.439       .  A
C448        N449   1.433       .  S
N449        O453   1.263       .  A
N449        O454   1.261       .  A
N452        O456   1.258       .  A
N452        O455   1.264       .  A
C457        C458   1.411       .  A
C457        C462   1.393       .  A
C457        H464   1.081       .  S
C458        C459   1.431       .  A
C459        C460   1.439       .  A
C459        N466   1.436       .  S
C460        C461   1.431       .  A
C460        H465   1.083       .  S
C461        C462   1.417       .  A
C462        N463   1.406       .  S
N463        O467   1.262       .  A
N463        O468   1.252       .  A
N466        O470   1.263       .  A
N466        O469   1.262       .  A
C471        C472   1.376       .  A
C471        C476   1.383       .  A
C471        H478   1.080       .  S
C472        C473   1.434       .  A
C473        C474   1.447       .  A
C473        N480   1.429       .  S
C474        C475   1.433       .  A
C474        H479   1.082       .  S
C475        C476   1.436       .  A
C476        N477   1.429       .  S
N477        O481   1.263       .  A
N477        O482   1.244       .  A
N480        O484   1.262       .  A
N480        O483   1.262       .  A
C485        C486   1.426       .  A
C485        C490   1.431       .  A
C485        H492   1.081       .  S
C486        C487   1.423       .  A
C487        C488   1.427       .  A
C487        N494   1.439       .  S
C488        C489   1.418       .  A
C488        H493   1.060       .  S
C489        C490   1.438       .  A
C490        N491   1.432       .  S
N491        O495   1.262       .  A
N491        O496   1.261       .  A
N494        O498   1.262       .  A
N494        O497   1.262       .  A
C499        C500   1.434       .  A
C499        C504   1.456       .  A
C499        H506   1.079       .  S
C500        C501   1.402       .  A
C501        C502   1.372       .  A
C501        N508   1.405       .  S
C502        C503   1.377       .  A
C502        H507   1.051       .  S
C503        C504   1.440       .  A
C504        N505   1.432       .  S
N505        O509   1.262       .  A
N505        O510   1.262       .  A
N508        O512   1.245       .  A
N508        O511   1.258       .  A
C513        C514   1.422       .  A
C513        C518   1.430       .  A
C513        H520   1.080       .  S
C514        C515   1.412       .  A
C515        C516   1.405       .  A
C515        N522   1.433       .  S
C516        C517   1.427       .  A
C516        H521   1.074       .  S
C517        C518   1.446       .  A
C518        N519   1.435       .  S
N519        O523   1.261       .  A
N519        O524   1.262       .  A
N522        O526   1.263       .  A
N522        O525   1.258       .  A
C527        C528   1.370       .  A
C527        C532   1.372       .  A
C527        H534   1.074       .  S
C528        C529   1.439       .  A
C529        C530   1.455       .  A
C529        N536   1.432       .  S
C530        C531   1.434       .  A
C530        H535   1.073       .  S
C531        C532   1.426       .  A
C532        N533   1.400       .  S
N533        O537   1.256       .  A
N533        O538   1.255       .  A
N536        O540   1.262       .  A
N536        O539   1.261       .  A
C541        C542   1.419       .  A
C541        C546   1.437       .  A
C541        H548   1.078       .  S
C542        C543   1.440       .  A
C543        C544   1.404       .  A
C543        N550   1.441       .  S
C544        C545   1.417       .  A
C544        H549   1.081       .  S
C545        C546   1.432       .  A
C546        N547   1.436       .  S
N547        O551   1.261       .  A
N547        O552   1.262       .  A
N550        O554   1.264       .  A
N550        O553   1.258       .  A
C555        C556   1.422       .  A
C555        C560   1.393       .  A
C555        H562   1.074       .  S
C556        C557   1.429       .  A
C557        C558   1.395       .  A
C557        N564   1.420       .  S
C558        C559   1.387       .  A
C558        H563   1.085       .  S
C559        C560   1.400       .  A
C560        N561   1.430       .  S
N561        O565   1.262       .  A
N561        O566   1.262       .  A
N564        O568   1.261       .  A
N564        O567   1.263       .  A
C569        C570   1.397       .  A
C569        C574   1.403       .  A
C569        H576   1.084       .  S
C570        C571   1.406       .  A
C571        C572   1.392       .  A
C571        N578   1.430       .  S
C572        C573   1.415       .  A
C572        H577   1.075       .  S
C573        C574   1.431       .  A
C574        N575   1.428       .  S
N575        O579   1.263       .  A
N575        O580   1.262       .  A
N578        O582   1.262       .  A
N578        O581   1.262       .  A
C583        C584   1.412       .  A
C583        C588   1.392       .  A
C583        H590   1.079       .  S
C584        C585   1.428       .  A
C585        C586   1.400       .  A
C585        N592   1.431       .  S
C586        C587   1.398       .  A
C586        H591   1.084       .  S
C587        C588   1.406       .  A
C588        N589   1.429       .  S
N589        O593   1.262       .  A
N589        O594   1.262       .  A
N592        O596   1.262       .  A
N592        O595   1.262       .  A
C597        C598   1.396       .  A
C597        C602   1.419       .  A
C597        H604   1.084       .  S
C598        C599   1.408       .  A
C599        C600   1.416       .  A
C599        N606   1.429       .  S
C600        C601   1.429       .  A
C600        H605   1.075       .  S
C601        C602   1.450       .  A
C602        N603   1.429       .  S
N603        O607   1.264       .  A
N603        O608   1.262       .  A
N606        O610   1.262       .  A
N606        O609   1.262       .  A
C611        C612   1.399       .  A
C611        C616   1.405       .  A
C611        H618   1.084       .  S
C612        C613   1.403       .  A
C613        C614   1.391       .  A
C613        N620   1.430       .  S
C614        C615   1.417       .  A
C614        H619   1.073       .  S
C615        C616   1.433       .  A
C616        N617   1.430       .  S
N617        O621   1.263       .  A
N617        O622   1.261       .  A
N620        O624   1.262       .  A
N620        O623   1.262       .  A
C625        C626   1.406       .  A
C625        C630   1.418       .  A
C625        H632   1.084       .  S
C626        C627   1.406       .  A
C627        C628   1.399       .  A
C627        N634   1.429       .  S
C628        C629   1.420       .  A
C628        H633   1.077       .  S
C629        C630   1.440       .  A
C630        N631   1.440       .  S
N631        O635   1.263       .  A
N631        O636   1.260       .  A
N634        O638   1.262       .  A
N634        O637   1.262       .  A
C639        C640   1.403       .  A
C639        C644   1.414       .  A
C639        H646   1.084       .  S
C640        C641   1.405       .  A
C641        C642   1.401       .  A
C641        N648   1.430       .  S
C642        C643   1.422       .  A
C642        H647   1.077       .  S
C643        C644   1.432       .  A
C644        N645   1.430       .  S
N645        O649   1.262       .  A
N645        O650   1.262       .  A
N648        O652   1.262       .  A
N648        O651   1.262       .  A
C653        C654   1.390       .  A
C653        C658   1.397       .  A
C653        H660   1.084       .  S
C654        C655   1.411       .  A
C655        C656   1.412       .  A
C655        N662   1.428       .  S
C656        C657   1.420       .  A
C656        H661   1.077       .  S
C657        C658   1.439       .  A
C658        N659   1.426       .  S
N659        O663   1.263       .  A
N659        O664   1.262       .  A
N662        O666   1.262       .  A
N662        O665   1.262       .  A
N667        N668   1.320       .  A
N667        N673   1.316       .  A
N667      Mn1362   2.231       .  S
N668        C675   1.359       .  A
N669        N671   1.316       .  A
N669        N670   1.320       .  A
N669      Mn2350   2.203   1_455  S
N670        C676   1.355       .  A
N671        N672   1.316       .  A
N672        C676   1.350       .  A
N673        N674   1.324       .  A
N673      Mn1018   2.198   1_554  S
N674        C675   1.353       .  A
C675        C987   1.494       .  S
C676        C903   1.478       .  S
N677        N683   1.316       .  A
N677        N678   1.322       .  A
N677      Mn2039   2.224       .  S
N678        C686   1.356       .  A
N679        N680   1.318       .  A
N679        N681   1.314       .  A
N679       Mn685   2.201       .  S
N680        C687   1.353       .  A
N681        N682   1.321       .  A
N681       Mn707   2.193       .  S
N682        C687   1.354       .  A
N683        N684   1.325       .  A
N683      Mn2017   2.214       .  S
N684        C686   1.357       .  A
Mn685      N2334   2.208       .  S
Mn685      N1006   2.198       .  S
Mn685      N2015   2.217       .  S
Mn685     Cl1708   2.556       .  S
C686        C973   1.499       .  S
C687        C945   1.480       .  S
N688        N689   1.328       .  A
N688        N694   1.318       .  A
N688       Mn696   2.236       .  S
N689        C697   1.358       .  A
N690        N692   1.316       .  A
N690        N691   1.317       .  A
N690      Mn2040   2.191   1_554  S
N691        C698   1.350       .  A
N692        N693   1.320       .  A
N692      Mn2028   2.198       .  S
N693        C698   1.354       .  A
N694        N695   1.330       .  A
N694       Mn708   2.257   1_554  S
N695        C697   1.363       .  A
Mn696      N1333   2.225   1_455  S
Mn696      N2024   2.193   1_455  S
Mn696      Cl709   2.546   1_554  S
C697        C931   1.518       .  S
C698        C920   1.476       .  S
N699        N700   1.326       .  A
N699        N705   1.318       .  A
N700        C710   1.356       .  A
N701        N702   1.317       .  A
N701        N703   1.316       .  A
N701      Mn1041   2.199       .  S
N702        C711   1.354       .  A
N703        N704   1.316       .  A
N703      Mn1373   2.177       .  S
N704        C711   1.347       .  A
N705        N706   1.324       .  A
N705      Mn2373   2.245       .  S
N706        C710   1.359       .  A
Mn707      N2009   2.218       .  S
Mn707      N1369   2.179   1_565  S
Mn707     Cl1708   2.552       .  S
Mn708      N2022   2.197   1_456  S
Mn708      N1034   2.197       .  S
Mn708      N2370   2.237   1_455  S
Mn708      Cl709   2.548       .  S
Cl709     Mn1684   2.556   1_455  S
Cl709     Mn1706   2.552   1_455  S
C710        C959   1.505       .  S
C711        C892   1.466       .  S
C712        C847   1.617       .  S
C712        C861   1.583       .  S
C712        C875   1.627       .  S
C712        C889   1.561       .  S
C713        C822   1.627       .  S
C713        C833   1.600       .  S
C713        C878   1.627       .  S
C713        C976   1.578       .  S
C714        C791   1.633       .  S
C714        C805   1.604       .  S
C714        C819   1.631       .  S
C714        C906   1.556       .  S
C715        C777   1.651       .  S
C715        C794   1.603       .  S
C715        C850   1.619       .  S
C715        C934   1.620       .  S
C716        C749   1.614       .  S
C716        C763   1.611       .  S
C716        C864   1.641       .  S
C716        C962   1.577       .  S
C717        C735   1.641       .  S
C717        C752   1.609       .  S
C717        C780   1.652       .  S
C717        C917   1.543       .  S
C718        C721   1.613       .  S
C718        C738   1.653       .  S
C718        C808   1.608       .  S
C718        C990   1.583       .  S
C719        C724   1.608       .  S
C719        C766   1.627       .  S
C719        C836   1.601       .  S
C719        C948   1.560       .  S
C720        C721   1.421       .  A
C720        C725   1.427       .  A
C720        H727   1.066       .  S
C721        C722   1.446       .  A
C722        C723   1.401       .  A
C722        N729   1.430       .  S
C723        C724   1.410       .  A
C723        H728   1.080       .  S
C724        C725   1.422       .  A
C725        N726   1.432       .  S
N726        O730   1.262       .  A
N726        O731   1.262       .  A
N729        O733   1.260       .  A
N729        O732   1.256       .  A
C734        C735   1.423       .  A
C734        C739   1.443       .  A
C734        H741   1.082       .  S
C735        C736   1.424       .  A
C736        C737   1.437       .  A
C736        N743   1.439       .  S
C737        C738   1.431       .  A
C737        H742   1.081       .  S
C738        C739   1.446       .  A
C739        N740   1.427       .  S
N740        O744   1.263       .  A
N740        O745   1.262       .  A
N743        O747   1.261       .  A
N743        O746   1.262       .  A
C748        C749   1.373       .  A
C748        C753   1.347       .  A
C748        H755   1.029       .  S
C749        C750   1.463       .  A
C750        C751   1.467       .  A
C750        N757   1.433       .  S
C751        C752   1.436       .  A
C751        H756   1.082       .  S
C752        C753   1.371       .  A
C753        N754   1.379       .  S
N754        O758   1.254       .  A
N754        O759   1.254       .  A
N757        O761   1.260       .  A
N757        O760   1.261       .  A
C762        C763   1.424       .  A
C762        C767   1.434       .  A
C762        H769   1.083       .  S
C763        C764   1.413       .  A
C764        C765   1.404       .  A
C764        N771   1.427       .  S
C765        C766   1.417       .  A
C765        H770   1.059       .  S
C766        C767   1.446       .  A
C767        N768   1.432       .  S
N768        O772   1.261       .  A
N768        O773   1.262       .  A
N771        O775   1.262       .  A
N771        O774   1.261       .  A
C776        C777   1.434       .  A
C776        C781   1.457       .  A
C776        H783   1.065       .  S
C777        C778   1.446       .  A
C778        C779   1.404       .  A
C778        N785   1.419       .  S
C779        C780   1.403       .  A
C779        H784   1.078       .  S
C780        C781   1.439       .  A
C781        N782   1.434       .  S
N782        O786   1.263       .  A
N782        O787   1.261       .  A
N785        O789   1.259       .  A
N785        O788   1.264       .  A
C790        C791   1.412       .  A
C790        C795   1.393       .  A
C790        H797   1.081       .  S
C791        C792   1.432       .  A
C792        C793   1.437       .  A
C792        N799   1.434       .  S
C793        C794   1.430       .  A
C793        H798   1.083       .  S
C794        C795   1.416       .  A
C795        N796   1.406       .  S
N796        O800   1.262       .  A
N796        O801   1.252       .  A
N799        O803   1.263       .  A
N799        O802   1.262       .  A
C804        C805   1.377       .  A
C804        C809   1.384       .  A
C804        H811   1.080       .  S
C805        C806   1.434       .  A
C806        C807   1.448       .  A
C806        N813   1.428       .  S
C807        C808   1.433       .  A
C807        H812   1.082       .  S
C808        C809   1.436       .  A
C809        N810   1.429       .  S
N810        O814   1.264       .  A
N810        O815   1.245       .  A
N813        O817   1.262       .  A
N813        O816   1.262       .  A
C818        C819   1.426       .  A
C818        C823   1.431       .  A
C818        H825   1.080       .  S
C819        C820   1.423       .  A
C820        C821   1.426       .  A
C820        N827   1.439       .  S
C821        C822   1.417       .  A
C821        H826   1.057       .  S
C822        C823   1.440       .  A
C823        N824   1.433       .  S
N824        O828   1.262       .  A
N824        O829   1.260       .  A
N827        O831   1.261       .  A
N827        O830   1.263       .  A
C832        C833   1.434       .  A
C832        C837   1.454       .  A
C832        H839   1.080       .  S
C833        C834   1.402       .  A
C834        C835   1.372       .  A
C834        N841   1.406       .  S
C835        C836   1.378       .  A
C835        H840   1.053       .  S
C836        C837   1.439       .  A
C837        N838   1.433       .  S
N838        O842   1.262       .  A
N838        O843   1.262       .  A
N841        O845   1.244       .  A
N841        O844   1.258       .  A
C846        C847   1.423       .  A
C846        C851   1.431       .  A
C846        H853   1.080       .  S
C847        C848   1.413       .  A
C848        C849   1.405       .  A
C848        N855   1.433       .  S
C849        C850   1.428       .  A
C849        H854   1.074       .  S
C850        C851   1.447       .  A
C851        N852   1.436       .  S
N852        O856   1.261       .  A
N852        O857   1.262       .  A
N855        O859   1.263       .  A
N855        O858   1.259       .  A
C860        C861   1.369       .  A
C860        C865   1.372       .  A
C860        H867   1.074       .  S
C861        C862   1.438       .  A
C862        C863   1.456       .  A
C862        N869   1.430       .  S
C863        C864   1.434       .  A
C863        H868   1.073       .  S
C864        C865   1.426       .  A
C865        N866   1.398       .  S
N866        O870   1.256       .  A
N866        O871   1.255       .  A
N869        O873   1.262       .  A
N869        O872   1.262       .  A
C874        C875   1.414       .  A
C874        C879   1.439       .  A
C874        H881   1.077       .  S
C875        C876   1.440       .  A
C876        C877   1.404       .  A
C876        N883   1.443       .  S
C877        C878   1.420       .  A
C877        H882   1.080       .  S
C878        C879   1.443       .  A
C879        N880   1.444       .  S
N880        O884   1.263       .  A
N880        O885   1.259       .  A
N883        O887   1.264       .  A
N883        O886   1.257       .  A
C888        C889   1.422       .  A
C888        C893   1.394       .  A
C888        H895   1.074       .  S
C889        C890   1.428       .  A
C890        C891   1.395       .  A
C890        N897   1.420       .  S
C891        C892   1.387       .  A
C891        H896   1.085       .  S
C892        C893   1.401       .  A
C893        N894   1.430       .  S
N894        O898   1.262       .  A
N894        O899   1.262       .  A
N897        O901   1.261       .  A
N897        O900   1.263       .  A
C902        C903   1.397       .  A
C902        C907   1.401       .  A
C902        H909   1.084       .  S
C903        C904   1.405       .  A
C904        C905   1.392       .  A
C904        N911   1.430       .  S
C905        C906   1.416       .  A
C905        H910   1.074       .  S
C906        C907   1.430       .  A
C907        N908   1.428       .  S
N908        O912   1.263       .  A
N908        O913   1.261       .  A
N911        O915   1.262       .  A
N911        O914   1.262       .  A
C916        C917   1.412       .  A
C916        C921   1.392       .  A
C916        H923   1.079       .  S
C917        C918   1.428       .  A
C918        C919   1.401       .  A
C918        N925   1.431       .  S
C919        C920   1.398       .  A
C919        H924   1.084       .  S
C920        C921   1.407       .  A
C921        N922   1.429       .  S
N922        O926   1.262       .  A
N922        O927   1.262       .  A
N925        O929   1.262       .  A
N925        O928   1.262       .  A
C930        C931   1.397       .  A
C930        C935   1.420       .  A
C930        H937   1.084       .  S
C931        C932   1.409       .  A
C932        C933   1.417       .  A
C932        N939   1.429       .  S
C933        C934   1.428       .  A
C933        H938   1.075       .  S
C934        C935   1.450       .  A
C935        N936   1.430       .  S
N936        O940   1.264       .  A
N936        O941   1.262       .  A
N939        O943   1.262       .  A
N939        O942   1.262       .  A
C944        C945   1.400       .  A
C944        C949   1.406       .  A
C944        H951   1.084       .  S
C945        C946   1.403       .  A
C946        C947   1.391       .  A
C946        N953   1.430       .  S
C947        C948   1.417       .  A
C947        H952   1.073       .  S
C948        C949   1.432       .  A
C949        N950   1.430       .  S
N950        O954   1.263       .  A
N950        O955   1.261       .  A
N953        O957   1.262       .  A
N953        O956   1.262       .  A
C958        C959   1.407       .  A
C958        C963   1.419       .  A
C958        H965   1.084       .  S
C959        C960   1.406       .  A
C960        C961   1.400       .  A
C960        N967   1.429       .  S
C961        C962   1.421       .  A
C961        H966   1.076       .  S
C962        C963   1.439       .  A
C963        N964   1.440       .  S
N964        O968   1.263       .  A
N964        O969   1.260       .  A
N967        O971   1.262       .  A
N967        O970   1.262       .  A
C972        C973   1.403       .  A
C972        C977   1.414       .  A
C972        H979   1.084       .  S
C973        C974   1.407       .  A
C974        C975   1.401       .  A
C974        N981   1.429       .  S
C975        C976   1.421       .  A
C975        H980   1.075       .  S
C976        C977   1.433       .  A
C977        N978   1.429       .  S
N978        O982   1.262       .  A
N978        O983   1.263       .  A
N981        O985   1.262       .  A
N981        O984   1.262       .  A
C986        C987   1.389       .  A
C986        C991   1.396       .  A
C986        H993   1.084       .  S
C987        C988   1.411       .  A
C988        C989   1.413       .  A
C988        N995   1.428       .  S
C989        C990   1.420       .  A
C989        H994   1.078       .  S
C990        C991   1.441       .  A
C991        N992   1.426       .  S
N992        O996   1.263       .  A
N992        O997   1.262       .  A
N995        O999   1.262       .  A
N995        O998   1.262       .  A
N1000      N1001   1.320       .  A
N1000      N1006   1.316       .  A
N1000     Mn1695   2.230       .  S
N1001      C1008   1.359       .  A
N1002      N1004   1.316       .  A
N1002      N1003   1.321       .  A
N1002     Mn2017   2.205       .  S
N1003      C1009   1.355       .  A
N1004      N1005   1.316       .  A
N1005      C1009   1.350       .  A
N1006      N1007   1.324       .  A
N1007      C1008   1.353       .  A
C1008      C1320   1.494       .  S
C1009      C1236   1.478       .  S
N1010      N1016   1.316       .  A
N1010      N1011   1.322       .  A
N1010     Mn2372   2.224       .  S
N1011      C1019   1.356       .  A
N1012      N1013   1.318       .  A
N1012      N1014   1.314       .  A
N1012     Mn1018   2.199       .  S
N1013      C1020   1.353       .  A
N1014      N1015   1.320       .  A
N1014     Mn1040   2.190       .  S
N1015      C1020   1.353       .  A
N1016      N1017   1.326       .  A
N1016     Mn2350   2.217   1_456  S
N1017      C1019   1.358       .  A
Mn1018     N2001   2.202   1_556  S
Mn1018     N2348   2.215       .  S
Mn1018    Cl1375   2.558       .  S
C1019      C1306   1.501       .  S
C1020      C1278   1.478       .  S
N1021      N1022   1.328       .  A
N1021      N1027   1.319       .  A
N1021     Mn1029   2.237       .  S
N1022      C1030   1.358       .  A
N1023      N1025   1.316       .  A
N1023      N1024   1.317       .  A
N1023     Mn2373   2.195       .  S
N1024      C1031   1.351       .  A
N1025      N1026   1.320       .  A
N1025     Mn2361   2.197       .  S
N1026      C1031   1.353       .  A
N1027      N1028   1.330       .  A
N1027     Mn1041   2.257       .  S
N1028      C1030   1.363       .  A
Mn1029     N1666   2.230   1_455  S
Mn1029     N2357   2.195   1_455  S
Mn1029    Cl1042   2.547       .  S
C1030      C1264   1.518       .  S
C1031      C1253   1.475       .  S
N1032      N1033   1.326       .  A
N1032      N1038   1.318       .  A
N1033      C1043   1.357       .  A
N1034      N1035   1.316       .  A
N1034      N1036   1.317       .  A
N1035      C1044   1.352       .  A
N1036      N1037   1.317       .  A
N1036     Mn1706   2.179   1_455  S
N1037      C1044   1.348       .  A
N1038      N1039   1.324       .  A
N1038     Mn2040   2.243       .  S
N1039      C1043   1.358       .  A
Mn1040     N2342   2.223       .  S
Mn1040     N1702   2.177   1_565  S
Mn1040    Cl1375   2.552       .  S
Mn1041     N2355   2.194   1_455  S
Mn1041     N2037   2.241   1_455  S
Mn1041    Cl1042   2.549       .  S
Cl1042    Mn1351   2.558       .  S
Cl1042    Mn1373   2.552       .  S
C1043      C1292   1.505       .  S
C1044      C1225   1.464       .  S
C1045      C1180   1.616       .  S
C1045      C1194   1.585       .  S
C1045      C1208   1.629       .  S
C1045      C1222   1.562       .  S
C1046      C1155   1.630       .  S
C1046      C1166   1.602       .  S
C1046      C1211   1.628       .  S
C1046      C1309   1.580       .  S
C1047      C1124   1.633       .  S
C1047      C1138   1.601       .  S
C1047      C1152   1.628       .  S
C1047      C1239   1.554       .  S
C1048      C1110   1.650       .  S
C1048      C1127   1.604       .  S
C1048      C1183   1.619       .  S
C1048      C1267   1.619       .  S
C1049      C1082   1.613       .  S
C1049      C1096   1.612       .  S
C1049      C1197   1.641       .  S
C1049      C1295   1.577       .  S
C1050      C1068   1.640       .  S
C1050      C1085   1.610       .  S
C1050      C1113   1.652       .  S
C1050      C1250   1.543       .  S
C1051      C1054   1.612       .  S
C1051      C1071   1.652       .  S
C1051      C1141   1.606       .  S
C1051      C1323   1.582       .  S
C1052      C1057   1.608       .  S
C1052      C1099   1.626       .  S
C1052      C1169   1.602       .  S
C1052      C1281   1.560       .  S
C1053      C1054   1.421       .  A
C1053      C1058   1.426       .  A
C1053      H1060   1.066       .  S
C1054      C1055   1.446       .  A
C1055      C1056   1.401       .  A
C1055      N1062   1.430       .  S
C1056      C1057   1.411       .  A
C1056      H1061   1.080       .  S
C1057      C1058   1.422       .  A
C1058      N1059   1.432       .  S
N1059      O1063   1.262       .  A
N1059      O1064   1.262       .  A
N1062      O1066   1.260       .  A
N1062      O1065   1.257       .  A
C1067      C1068   1.423       .  A
C1067      C1072   1.443       .  A
C1067      H1074   1.082       .  S
C1068      C1069   1.423       .  A
C1069      C1070   1.437       .  A
C1069      N1076   1.438       .  S
C1070      C1071   1.430       .  A
C1070      H1075   1.081       .  S
C1071      C1072   1.446       .  A
C1072      N1073   1.428       .  S
N1073      O1077   1.263       .  A
N1073      O1078   1.262       .  A
N1076      O1080   1.261       .  A
N1076      O1079   1.262       .  A
C1081      C1082   1.370       .  A
C1081      C1086   1.346       .  A
C1081      H1088   1.038       .  S
C1082      C1083   1.464       .  A
C1083      C1084   1.467       .  A
C1083      N1090   1.433       .  S
C1084      C1085   1.436       .  A
C1084      H1089   1.082       .  S
C1085      C1086   1.372       .  A
C1086      N1087   1.377       .  S
N1087      O1091   1.252       .  A
N1087      O1092   1.255       .  A
N1090      O1094   1.260       .  A
N1090      O1093   1.262       .  A
C1095      C1096   1.423       .  A
C1095      C1100   1.434       .  A
C1095      H1102   1.083       .  S
C1096      C1097   1.414       .  A
C1097      C1098   1.404       .  A
C1097      N1104   1.428       .  S
C1098      C1099   1.417       .  A
C1098      H1103   1.059       .  S
C1099      C1100   1.446       .  A
C1100      N1101   1.432       .  S
N1101      O1105   1.261       .  A
N1101      O1106   1.262       .  A
N1104      O1108   1.262       .  A
N1104      O1107   1.261       .  A
C1109      C1110   1.433       .  A
C1109      C1114   1.456       .  A
C1109      H1116   1.065       .  S
C1110      C1111   1.445       .  A
C1111      C1112   1.404       .  A
C1111      N1118   1.419       .  S
C1112      C1113   1.403       .  A
C1112      H1117   1.078       .  S
C1113      C1114   1.440       .  A
C1114      N1115   1.433       .  S
N1115      O1119   1.263       .  A
N1115      O1120   1.261       .  A
N1118      O1122   1.258       .  A
N1118      O1121   1.264       .  A
C1123      C1124   1.410       .  A
C1123      C1128   1.394       .  A
C1123      H1130   1.081       .  S
C1124      C1125   1.431       .  A
C1125      C1126   1.438       .  A
C1125      N1132   1.436       .  S
C1126      C1127   1.430       .  A
C1126      H1131   1.083       .  S
C1127      C1128   1.418       .  A
C1128      N1129   1.406       .  S
N1129      O1133   1.261       .  A
N1129      O1134   1.252       .  A
N1132      O1136   1.263       .  A
N1132      O1135   1.262       .  A
C1137      C1138   1.376       .  A
C1137      C1142   1.382       .  A
C1137      H1144   1.080       .  S
C1138      C1139   1.435       .  A
C1139      C1140   1.447       .  A
C1139      N1146   1.429       .  S
C1140      C1141   1.433       .  A
C1140      H1145   1.082       .  S
C1141      C1142   1.435       .  A
C1142      N1143   1.428       .  S
N1143      O1147   1.263       .  A
N1143      O1148   1.244       .  A
N1146      O1150   1.262       .  A
N1146      O1149   1.262       .  A
C1151      C1152   1.425       .  A
C1151      C1156   1.432       .  A
C1151      H1158   1.081       .  S
C1152      C1153   1.420       .  A
C1153      C1154   1.426       .  A
C1153      N1160   1.438       .  S
C1154      C1155   1.421       .  A
C1154      H1159   1.059       .  S
C1155      C1156   1.442       .  A
C1156      N1157   1.433       .  S
N1157      O1161   1.262       .  A
N1157      O1162   1.261       .  A
N1160      O1164   1.262       .  A
N1160      O1163   1.262       .  A
C1165      C1166   1.435       .  A
C1165      C1170   1.454       .  A
C1165      H1172   1.080       .  S
C1166      C1167   1.401       .  A
C1167      C1168   1.373       .  A
C1167      N1174   1.406       .  S
C1168      C1169   1.379       .  A
C1168      H1173   1.051       .  S
C1169      C1170   1.439       .  A
C1170      N1171   1.432       .  S
N1171      O1175   1.262       .  A
N1171      O1176   1.262       .  A
N1174      O1178   1.245       .  A
N1174      O1177   1.258       .  A
C1179      C1180   1.422       .  A
C1179      C1184   1.430       .  A
C1179      H1186   1.081       .  S
C1180      C1181   1.412       .  A
C1181      C1182   1.406       .  A
C1181      N1188   1.434       .  S
C1182      C1183   1.428       .  A
C1182      H1187   1.073       .  S
C1183      C1184   1.447       .  A
C1184      N1185   1.435       .  S
N1185      O1189   1.261       .  A
N1185      O1190   1.262       .  A
N1188      O1192   1.263       .  A
N1188      O1191   1.258       .  A
C1193      C1194   1.370       .  A
C1193      C1198   1.373       .  A
C1193      H1200   1.074       .  S
C1194      C1195   1.439       .  A
C1195      C1196   1.456       .  A
C1195      N1202   1.431       .  S
C1196      C1197   1.434       .  A
C1196      H1201   1.073       .  S
C1197      C1198   1.427       .  A
C1198      N1199   1.400       .  S
N1199      O1203   1.256       .  A
N1199      O1204   1.256       .  A
N1202      O1206   1.262       .  A
N1202      O1205   1.262       .  A
C1207      C1208   1.414       .  A
C1207      C1212   1.442       .  A
C1207      H1214   1.078       .  S
C1208      C1209   1.437       .  A
C1209      C1210   1.404       .  A
C1209      N1216   1.442       .  S
C1210      C1211   1.420       .  A
C1210      H1215   1.080       .  S
C1211      C1212   1.447       .  A
C1212      N1213   1.448       .  S
N1213      O1217   1.263       .  A
N1213      O1218   1.258       .  A
N1216      O1220   1.264       .  A
N1216      O1219   1.258       .  A
C1221      C1222   1.423       .  A
C1221      C1226   1.393       .  A
C1221      H1228   1.074       .  S
C1222      C1223   1.428       .  A
C1223      C1224   1.395       .  A
C1223      N1230   1.420       .  S
C1224      C1225   1.387       .  A
C1224      H1229   1.085       .  S
C1225      C1226   1.400       .  A
C1226      N1227   1.431       .  S
N1227      O1231   1.262       .  A
N1227      O1232   1.262       .  A
N1230      O1234   1.261       .  A
N1230      O1233   1.263       .  A
C1235      C1236   1.397       .  A
C1235      C1240   1.402       .  A
C1235      H1242   1.084       .  S
C1236      C1237   1.406       .  A
C1237      C1238   1.392       .  A
C1237      N1244   1.430       .  S
C1238      C1239   1.416       .  A
C1238      H1243   1.075       .  S
C1239      C1240   1.430       .  A
C1240      N1241   1.429       .  S
N1241      O1245   1.263       .  A
N1241      O1246   1.261       .  A
N1244      O1248   1.262       .  A
N1244      O1247   1.262       .  A
C1249      C1250   1.413       .  A
C1249      C1254   1.392       .  A
C1249      H1256   1.079       .  S
C1250      C1251   1.428       .  A
C1251      C1252   1.402       .  A
C1251      N1258   1.432       .  S
C1252      C1253   1.399       .  A
C1252      H1257   1.084       .  S
C1253      C1254   1.406       .  A
C1254      N1255   1.429       .  S
N1255      O1259   1.262       .  A
N1255      O1260   1.262       .  A
N1258      O1262   1.262       .  A
N1258      O1261   1.262       .  A
C1263      C1264   1.396       .  A
C1263      C1268   1.420       .  A
C1263      H1270   1.084       .  S
C1264      C1265   1.409       .  A
C1265      C1266   1.417       .  A
C1265      N1272   1.429       .  S
C1266      C1267   1.429       .  A
C1266      H1271   1.075       .  S
C1267      C1268   1.450       .  A
C1268      N1269   1.430       .  S
N1269      O1273   1.263       .  A
N1269      O1274   1.262       .  A
N1272      O1276   1.262       .  A
N1272      O1275   1.262       .  A
C1277      C1278   1.399       .  A
C1277      C1282   1.405       .  A
C1277      H1284   1.084       .  S
C1278      C1279   1.402       .  A
C1279      C1280   1.390       .  A
C1279      N1286   1.430       .  S
C1280      C1281   1.417       .  A
C1280      H1285   1.074       .  S
C1281      C1282   1.432       .  A
C1282      N1283   1.430       .  S
N1283      O1287   1.263       .  A
N1283      O1288   1.261       .  A
N1286      O1290   1.262       .  A
N1286      O1289   1.262       .  A
C1291      C1292   1.407       .  A
C1291      C1296   1.419       .  A
C1291      H1298   1.084       .  S
C1292      C1293   1.406       .  A
C1293      C1294   1.401       .  A
C1293      N1300   1.429       .  S
C1294      C1295   1.421       .  A
C1294      H1299   1.076       .  S
C1295      C1296   1.439       .  A
C1296      N1297   1.440       .  S
N1297      O1301   1.263       .  A
N1297      O1302   1.260       .  A
N1300      O1304   1.262       .  A
N1300      O1303   1.262       .  A
C1305      C1306   1.404       .  A
C1305      C1310   1.415       .  A
C1305      H1312   1.084       .  S
C1306      C1307   1.407       .  A
C1307      C1308   1.401       .  A
C1307      N1314   1.429       .  S
C1308      C1309   1.420       .  A
C1308      H1313   1.074       .  S
C1309      C1310   1.434       .  A
C1310      N1311   1.429       .  S
N1311      O1315   1.262       .  A
N1311      O1316   1.262       .  A
N1314      O1318   1.262       .  A
N1314      O1317   1.262       .  A
C1319      C1320   1.389       .  A
C1319      C1324   1.396       .  A
C1319      H1326   1.084       .  S
C1320      C1321   1.411       .  A
C1321      C1322   1.413       .  A
C1321      N1328   1.428       .  S
C1322      C1323   1.420       .  A
C1322      H1327   1.078       .  S
C1323      C1324   1.440       .  A
C1324      N1325   1.426       .  S
N1325      O1329   1.262       .  A
N1325      O1330   1.262       .  A
N1328      O1332   1.262       .  A
N1328      O1331   1.262       .  A
N1333      N1334   1.319       .  A
N1333      N1339   1.316       .  A
N1334      C1341   1.358       .  A
N1335      N1337   1.316       .  A
N1335      N1336   1.320       .  A
N1336      C1342   1.354       .  A
N1337      N1338   1.316       .  A
N1337     Mn2028   2.189       .  S
N1338      C1342   1.350       .  A
N1339      N1340   1.323       .  A
N1339     Mn1684   2.193   1_554  S
N1340      C1341   1.352       .  A
C1341      C1653   1.490       .  S
C1342      C1569   1.477       .  S
N1343      N1349   1.316       .  A
N1343      N1344   1.322       .  A
N1344      C1352   1.356       .  A
N1345      N1346   1.318       .  A
N1345      N1347   1.314       .  A
N1345     Mn1351   2.200   1_655  S
N1346      C1353   1.353       .  A
N1347      N1348   1.320       .  A
N1347     Mn1373   2.191   1_655  S
N1348      C1353   1.354       .  A
N1349      N1350   1.326       .  A
N1350      C1352   1.358       .  A
Mn1351     N1672   2.202   1_455  S
C1352      C1639   1.500       .  S
C1353      C1611   1.480       .  S
N1354      N1355   1.328       .  A
N1354      N1360   1.319       .  A
N1354     Mn1362   2.240   1_545  S
N1355      C1363   1.358       .  A
N1356      N1358   1.316       .  A
N1356      N1357   1.318       .  A
N1357      C1364   1.352       .  A
N1358      N1359   1.319       .  A
N1359      C1364   1.352       .  A
N1360      N1361   1.330       .  A
N1360     Mn1374   2.260   1_554  S
N1361      C1363   1.363       .  A
Mn1362     N2003   2.193       .  S
Mn1362    Cl1375   2.548   1_554  S
C1363      C1597   1.520       .  S
C1364      C1586   1.474       .  S
N1365      N1366   1.326       .  A
N1365      N1371   1.318       .  A
N1365     Mn2039   2.220   1_645  S
N1366      C1376   1.357       .  A
N1367      N1368   1.317       .  A
N1367      N1369   1.316       .  A
N1367     Mn1707   2.198       .  S
N1368      C1377   1.353       .  A
N1369      N1370   1.317       .  A
N1370      C1377   1.348       .  A
N1371      N1372   1.324       .  A
N1372      C1376   1.358       .  A
Mn1373     N2031   2.220   1_455  S
Mn1374     N1700   2.201       .  S
Mn1374    Cl1375   2.549   1_545  S
C1376      C1625   1.506       .  S
C1377      C1558   1.466       .  S
C1378      C1513   1.618       .  S
C1378      C1527   1.585       .  S
C1378      C1541   1.627       .  S
C1378      C1555   1.562       .  S
C1379      C1488   1.629       .  S
C1379      C1499   1.602       .  S
C1379      C1544   1.627       .  S
C1379      C1642   1.578       .  S
C1380      C1457   1.634       .  S
C1380      C1471   1.601       .  S
C1380      C1485   1.631       .  S
C1380      C1572   1.554       .  S
C1381      C1443   1.652       .  S
C1381      C1460   1.604       .  S
C1381      C1516   1.620       .  S
C1381      C1600   1.622       .  S
C1382      C1415   1.615       .  S
C1382      C1429   1.612       .  S
C1382      C1530   1.640       .  S
C1382      C1628   1.577       .  S
C1383      C1401   1.639       .  S
C1383      C1418   1.610       .  S
C1383      C1446   1.652       .  S
C1383      C1583   1.543       .  S
C1384      C1387   1.608       .  S
C1384      C1404   1.650       .  S
C1384      C1474   1.606       .  S
C1384      C1656   1.579       .  S
C1385      C1390   1.606       .  S
C1385      C1432   1.628       .  S
C1385      C1502   1.602       .  S
C1385      C1614   1.561       .  S
C1386      C1387   1.420       .  A
C1386      C1391   1.425       .  A
C1386      H1393   1.065       .  S
C1387      C1388   1.445       .  A
C1388      C1389   1.400       .  A
C1388      N1395   1.430       .  S
C1389      C1390   1.411       .  A
C1389      H1394   1.080       .  S
C1390      C1391   1.421       .  A
C1391      N1392   1.432       .  S
N1392      O1396   1.262       .  A
N1392      O1397   1.262       .  A
N1395      O1399   1.260       .  A
N1395      O1398   1.256       .  A
C1400      C1401   1.423       .  A
C1400      C1405   1.442       .  A
C1400      H1407   1.082       .  S
C1401      C1402   1.423       .  A
C1402      C1403   1.435       .  A
C1402      N1409   1.439       .  S
C1403      C1404   1.430       .  A
C1403      H1408   1.081       .  S
C1404      C1405   1.446       .  A
C1405      N1406   1.428       .  S
N1406      O1410   1.263       .  A
N1406      O1411   1.262       .  A
N1409      O1413   1.261       .  A
N1409      O1412   1.262       .  A
C1414      C1415   1.371       .  A
C1414      C1419   1.347       .  A
C1414      H1421   1.037       .  S
C1415      C1416   1.464       .  A
C1416      C1417   1.468       .  A
C1416      N1423   1.433       .  S
C1417      C1418   1.436       .  A
C1417      H1422   1.082       .  S
C1418      C1419   1.373       .  A
C1419      N1420   1.378       .  S
N1420      O1424   1.253       .  A
N1420      O1425   1.255       .  A
N1423      O1427   1.260       .  A
N1423      O1426   1.262       .  A
C1428      C1429   1.424       .  A
C1428      C1433   1.435       .  A
C1428      H1435   1.083       .  S
C1429      C1430   1.413       .  A
C1430      C1431   1.404       .  A
C1430      N1437   1.428       .  S
C1431      C1432   1.418       .  A
C1431      H1436   1.058       .  S
C1432      C1433   1.446       .  A
C1433      N1434   1.433       .  S
N1434      O1438   1.261       .  A
N1434      O1439   1.262       .  A
N1437      O1441   1.262       .  A
N1437      O1440   1.261       .  A
C1442      C1443   1.433       .  A
C1442      C1447   1.456       .  A
C1442      H1449   1.064       .  S
C1443      C1444   1.445       .  A
C1444      C1445   1.404       .  A
C1444      N1451   1.419       .  S
C1445      C1446   1.404       .  A
C1445      H1450   1.078       .  S
C1446      C1447   1.440       .  A
C1447      N1448   1.433       .  S
N1448      O1452   1.263       .  A
N1448      O1453   1.261       .  A
N1451      O1455   1.258       .  A
N1451      O1454   1.264       .  A
C1456      C1457   1.412       .  A
C1456      C1461   1.394       .  A
C1456      H1463   1.081       .  S
C1457      C1458   1.432       .  A
C1458      C1459   1.437       .  A
C1458      N1465   1.435       .  S
C1459      C1460   1.430       .  A
C1459      H1464   1.083       .  S
C1460      C1461   1.417       .  A
C1461      N1462   1.406       .  S
N1462      O1466   1.262       .  A
N1462      O1467   1.252       .  A
N1465      O1469   1.263       .  A
N1465      O1468   1.262       .  A
C1470      C1471   1.376       .  A
C1470      C1475   1.382       .  A
C1470      H1477   1.080       .  S
C1471      C1472   1.434       .  A
C1472      C1473   1.446       .  A
C1472      N1479   1.429       .  S
C1473      C1474   1.433       .  A
C1473      H1478   1.081       .  S
C1474      C1475   1.436       .  A
C1475      N1476   1.429       .  S
N1476      O1480   1.263       .  A
N1476      O1481   1.244       .  A
N1479      O1483   1.262       .  A
N1479      O1482   1.262       .  A
C1484      C1485   1.427       .  A
C1484      C1489   1.432       .  A
C1484      H1491   1.080       .  S
C1485      C1486   1.422       .  A
C1486      C1487   1.428       .  A
C1486      N1493   1.440       .  S
C1487      C1488   1.420       .  A
C1487      H1492   1.057       .  S
C1488      C1489   1.440       .  A
C1489      N1490   1.432       .  S
N1490      O1494   1.262       .  A
N1490      O1495   1.261       .  A
N1493      O1497   1.261       .  A
N1493      O1496   1.262       .  A
C1498      C1499   1.434       .  A
C1498      C1503   1.454       .  A
C1498      H1505   1.080       .  S
C1499      C1500   1.402       .  A
C1500      C1501   1.373       .  A
C1500      N1507   1.407       .  S
C1501      C1502   1.378       .  A
C1501      H1506   1.051       .  S
C1502      C1503   1.438       .  A
C1503      N1504   1.432       .  S
N1504      O1508   1.262       .  A
N1504      O1509   1.262       .  A
N1507      O1511   1.244       .  A
N1507      O1510   1.258       .  A
C1512      C1513   1.423       .  A
C1512      C1517   1.431       .  A
C1512      H1519   1.081       .  S
C1513      C1514   1.413       .  A
C1514      C1515   1.406       .  A
C1514      N1521   1.434       .  S
C1515      C1516   1.427       .  A
C1515      H1520   1.074       .  S
C1516      C1517   1.447       .  A
C1517      N1518   1.435       .  S
N1518      O1522   1.261       .  A
N1518      O1523   1.262       .  A
N1521      O1525   1.263       .  A
N1521      O1524   1.259       .  A
C1526      C1527   1.369       .  A
C1526      C1531   1.372       .  A
C1526      H1533   1.074       .  S
C1527      C1528   1.439       .  A
C1528      C1529   1.456       .  A
C1528      N1535   1.431       .  S
C1529      C1530   1.434       .  A
C1529      H1534   1.074       .  S
C1530      C1531   1.426       .  A
C1531      N1532   1.399       .  S
N1532      O1536   1.256       .  A
N1532      O1537   1.255       .  A
N1535      O1539   1.262       .  A
N1535      O1538   1.262       .  A
C1540      C1541   1.414       .  A
C1540      C1545   1.439       .  A
C1540      H1547   1.077       .  S
C1541      C1542   1.439       .  A
C1542      C1543   1.404       .  A
C1542      N1549   1.442       .  S
C1543      C1544   1.420       .  A
C1543      H1548   1.080       .  S
C1544      C1545   1.443       .  A
C1545      N1546   1.444       .  S
N1546      O1550   1.263       .  A
N1546      O1551   1.259       .  A
N1549      O1553   1.264       .  A
N1549      O1552   1.257       .  A
C1554      C1555   1.422       .  A
C1554      C1559   1.395       .  A
C1554      H1561   1.075       .  S
C1555      C1556   1.428       .  A
C1556      C1557   1.395       .  A
C1556      N1563   1.419       .  S
C1557      C1558   1.387       .  A
C1557      H1562   1.085       .  S
C1558      C1559   1.401       .  A
C1559      N1560   1.430       .  S
N1560      O1564   1.262       .  A
N1560      O1565   1.262       .  A
N1563      O1567   1.261       .  A
N1563      O1566   1.263       .  A
C1568      C1569   1.398       .  A
C1568      C1573   1.402       .  A
C1568      H1575   1.084       .  S
C1569      C1570   1.405       .  A
C1570      C1571   1.390       .  A
C1570      N1577   1.430       .  S
C1571      C1572   1.416       .  A
C1571      H1576   1.074       .  S
C1572      C1573   1.430       .  A
C1573      N1574   1.429       .  S
N1574      O1578   1.263       .  A
N1574      O1579   1.261       .  A
N1577      O1581   1.262       .  A
N1577      O1580   1.262       .  A
C1582      C1583   1.414       .  A
C1582      C1587   1.391       .  A
C1582      H1589   1.079       .  S
C1583      C1584   1.427       .  A
C1584      C1585   1.401       .  A
C1584      N1591   1.431       .  S
C1585      C1586   1.399       .  A
C1585      H1590   1.084       .  S
C1586      C1587   1.405       .  A
C1587      N1588   1.430       .  S
N1588      O1592   1.262       .  A
N1588      O1593   1.262       .  A
N1591      O1595   1.262       .  A
N1591      O1594   1.262       .  A
C1596      C1597   1.397       .  A
C1596      C1601   1.421       .  A
C1596      H1603   1.084       .  S
C1597      C1598   1.409       .  A
C1598      C1599   1.417       .  A
C1598      N1605   1.429       .  S
C1599      C1600   1.429       .  A
C1599      H1604   1.075       .  S
C1600      C1601   1.451       .  A
C1601      N1602   1.430       .  S
N1602      O1606   1.264       .  A
N1602      O1607   1.262       .  A
N1605      O1609   1.262       .  A
N1605      O1608   1.262       .  A
C1610      C1611   1.399       .  A
C1610      C1615   1.405       .  A
C1610      H1617   1.084       .  S
C1611      C1612   1.403       .  A
C1612      C1613   1.391       .  A
C1612      N1619   1.430       .  S
C1613      C1614   1.417       .  A
C1613      H1618   1.073       .  S
C1614      C1615   1.433       .  A
C1615      N1616   1.430       .  S
N1616      O1620   1.263       .  A
N1616      O1621   1.261       .  A
N1619      O1623   1.262       .  A
N1619      O1622   1.262       .  A
C1624      C1625   1.407       .  A
C1624      C1629   1.419       .  A
C1624      H1631   1.084       .  S
C1625      C1626   1.407       .  A
C1626      C1627   1.400       .  A
C1626      N1633   1.429       .  S
C1627      C1628   1.420       .  A
C1627      H1632   1.076       .  S
C1628      C1629   1.439       .  A
C1629      N1630   1.439       .  S
N1630      O1634   1.263       .  A
N1630      O1635   1.260       .  A
N1633      O1637   1.262       .  A
N1633      O1636   1.262       .  A
C1638      C1639   1.402       .  A
C1638      C1643   1.414       .  A
C1638      H1645   1.084       .  S
C1639      C1640   1.408       .  A
C1640      C1641   1.403       .  A
C1640      N1647   1.429       .  S
C1641      C1642   1.421       .  A
C1641      H1646   1.076       .  S
C1642      C1643   1.434       .  A
C1643      N1644   1.429       .  S
N1644      O1648   1.262       .  A
N1644      O1649   1.262       .  A
N1647      O1651   1.262       .  A
N1647      O1650   1.262       .  A
C1652      C1653   1.388       .  A
C1652      C1657   1.394       .  A
C1652      H1659   1.084       .  S
C1653      C1654   1.410       .  A
C1654      C1655   1.411       .  A
C1654      N1661   1.428       .  S
C1655      C1656   1.419       .  A
C1655      H1660   1.078       .  S
C1656      C1657   1.441       .  A
C1657      N1658   1.427       .  S
N1658      O1662   1.262       .  A
N1658      O1663   1.262       .  A
N1661      O1665   1.262       .  A
N1661      O1664   1.262       .  A
N1666      N1667   1.320       .  A
N1666      N1672   1.316       .  A
N1667      C1674   1.359       .  A
N1668      N1670   1.316       .  A
N1668      N1669   1.320       .  A
N1669      C1675   1.354       .  A
N1670      N1671   1.316       .  A
N1670     Mn2361   2.189       .  S
N1671      C1675   1.350       .  A
N1672      N1673   1.325       .  A
N1673      C1674   1.353       .  A
C1674      C1986   1.495       .  S
C1675      C1902   1.477       .  S
N1676      N1682   1.315       .  A
N1676      N1677   1.322       .  A
N1677      C1685   1.356       .  A
N1678      N1679   1.318       .  A
N1678      N1680   1.313       .  A
N1678     Mn1684   2.200       .  S
N1679      C1686   1.353       .  A
N1680      N1681   1.320       .  A
N1680     Mn1706   2.190       .  S
N1681      C1686   1.354       .  A
N1682      N1683   1.325       .  A
N1683      C1685   1.357       .  A
C1685      C1972   1.497       .  S
C1686      C1944   1.479       .  S
N1687      N1688   1.328       .  A
N1687      N1693   1.319       .  A
N1687     Mn1695   2.236   1_545  S
N1688      C1696   1.358       .  A
N1689      N1691   1.316       .  A
N1689      N1690   1.316       .  A
N1690      C1697   1.350       .  A
N1691      N1692   1.320       .  A
N1692      C1697   1.353       .  A
N1693      N1694   1.330       .  A
N1693     Mn1707   2.258       .  S
N1694      C1696   1.362       .  A
Mn1695     N2336   2.191       .  S
Mn1695    Cl1708   2.549       .  S
C1696      C1930   1.517       .  S
C1697      C1919   1.472       .  S
N1698      N1699   1.326       .  A
N1698      N1704   1.318       .  A
N1698     Mn2372   2.220   1_645  S
N1699      C1709   1.357       .  A
N1700      N1701   1.317       .  A
N1700      N1702   1.317       .  A
N1701      C1710   1.353       .  A
N1702      N1703   1.317       .  A
N1703      C1710   1.347       .  A
N1704      N1705   1.324       .  A
N1705      C1709   1.358       .  A
Mn1706     N2364   2.214       .  S
Mn1707    Cl1708   2.549   1_545  S
C1709      C1958   1.506       .  S
C1710      C1891   1.465       .  S
C1711      C1846   1.616       .  S
C1711      C1860   1.585       .  S
C1711      C1874   1.627       .  S
C1711      C1888   1.561       .  S
C1712      C1821   1.628       .  S
C1712      C1832   1.600       .  S
C1712      C1877   1.627       .  S
C1712      C1975   1.576       .  S
C1713      C1790   1.633       .  S
C1713      C1804   1.604       .  S
C1713      C1818   1.630       .  S
C1713      C1905   1.554       .  S
C1714      C1776   1.649       .  S
C1714      C1793   1.603       .  S
C1714      C1849   1.616       .  S
C1714      C1933   1.619       .  S
C1715      C1748   1.614       .  S
C1715      C1762   1.611       .  S
C1715      C1863   1.641       .  S
C1715      C1961   1.578       .  S
C1716      C1734   1.641       .  S
C1716      C1751   1.609       .  S
C1716      C1779   1.651       .  S
C1716      C1916   1.540       .  S
C1717      C1720   1.611       .  S
C1717      C1737   1.651       .  S
C1717      C1807   1.609       .  S
C1717      C1989   1.583       .  S
C1718      C1723   1.610       .  S
C1718      C1765   1.629       .  S
C1718      C1835   1.600       .  S
C1718      C1947   1.560       .  S
C1719      C1720   1.421       .  A
C1719      C1724   1.426       .  A
C1719      H1726   1.065       .  S
C1720      C1721   1.445       .  A
C1721      C1722   1.403       .  A
C1721      N1728   1.430       .  S
C1722      C1723   1.412       .  A
C1722      H1727   1.080       .  S
C1723      C1724   1.422       .  A
C1724      N1725   1.433       .  S
N1725      O1729   1.262       .  A
N1725      O1730   1.262       .  A
N1728      O1732   1.260       .  A
N1728      O1731   1.257       .  A
C1733      C1734   1.424       .  A
C1733      C1738   1.443       .  A
C1733      H1740   1.082       .  S
C1734      C1735   1.423       .  A
C1735      C1736   1.436       .  A
C1735      N1742   1.438       .  S
C1736      C1737   1.430       .  A
C1736      H1741   1.081       .  S
C1737      C1738   1.446       .  A
C1738      N1739   1.429       .  S
N1739      O1743   1.263       .  A
N1739      O1744   1.262       .  A
N1742      O1746   1.261       .  A
N1742      O1745   1.262       .  A
C1747      C1748   1.372       .  A
C1747      C1752   1.348       .  A
C1747      H1754   1.021       .  S
C1748      C1749   1.463       .  A
C1749      C1750   1.467       .  A
C1749      N1756   1.433       .  S
C1750      C1751   1.436       .  A
C1750      H1755   1.081       .  S
C1751      C1752   1.372       .  A
C1752      N1753   1.378       .  S
N1753      O1757   1.253       .  A
N1753      O1758   1.255       .  A
N1756      O1760   1.260       .  A
N1756      O1759   1.262       .  A
C1761      C1762   1.423       .  A
C1761      C1766   1.435       .  A
C1761      H1768   1.083       .  S
C1762      C1763   1.413       .  A
C1763      C1764   1.403       .  A
C1763      N1770   1.428       .  S
C1764      C1765   1.418       .  A
C1764      H1769   1.058       .  S
C1765      C1766   1.447       .  A
C1766      N1767   1.433       .  S
N1767      O1771   1.261       .  A
N1767      O1772   1.262       .  A
N1770      O1774   1.262       .  A
N1770      O1773   1.261       .  A
C1775      C1776   1.432       .  A
C1775      C1780   1.455       .  A
C1775      H1782   1.064       .  S
C1776      C1777   1.445       .  A
C1777      C1778   1.402       .  A
C1777      N1784   1.419       .  S
C1778      C1779   1.404       .  A
C1778      H1783   1.078       .  S
C1779      C1780   1.440       .  A
C1780      N1781   1.433       .  S
N1781      O1785   1.263       .  A
N1781      O1786   1.261       .  A
N1784      O1788   1.259       .  A
N1784      O1787   1.264       .  A
C1789      C1790   1.410       .  A
C1789      C1794   1.394       .  A
C1789      H1796   1.081       .  S
C1790      C1791   1.432       .  A
C1791      C1792   1.437       .  A
C1791      N1798   1.435       .  S
C1792      C1793   1.429       .  A
C1792      H1797   1.083       .  S
C1793      C1794   1.418       .  A
C1794      N1795   1.406       .  S
N1795      O1799   1.262       .  A
N1795      O1800   1.252       .  A
N1798      O1802   1.263       .  A
N1798      O1801   1.262       .  A
C1803      C1804   1.376       .  A
C1803      C1808   1.383       .  A
C1803      H1810   1.079       .  S
C1804      C1805   1.435       .  A
C1805      C1806   1.448       .  A
C1805      N1812   1.429       .  S
C1806      C1807   1.433       .  A
C1806      H1811   1.082       .  S
C1807      C1808   1.437       .  A
C1808      N1809   1.429       .  S
N1809      O1813   1.263       .  A
N1809      O1814   1.244       .  A
N1812      O1816   1.262       .  A
N1812      O1815   1.262       .  A
C1817      C1818   1.426       .  A
C1817      C1822   1.431       .  A
C1817      H1824   1.080       .  S
C1818      C1819   1.423       .  A
C1819      C1820   1.427       .  A
C1819      N1826   1.439       .  S
C1820      C1821   1.418       .  A
C1820      H1825   1.058       .  S
C1821      C1822   1.440       .  A
C1822      N1823   1.432       .  S
N1823      O1827   1.262       .  A
N1823      O1828   1.261       .  A
N1826      O1830   1.262       .  A
N1826      O1829   1.262       .  A
C1831      C1832   1.434       .  A
C1831      C1836   1.453       .  A
C1831      H1838   1.080       .  S
C1832      C1833   1.401       .  A
C1833      C1834   1.372       .  A
C1833      N1840   1.407       .  S
C1834      C1835   1.378       .  A
C1834      H1839   1.051       .  S
C1835      C1836   1.438       .  A
C1836      N1837   1.432       .  S
N1837      O1841   1.262       .  A
N1837      O1842   1.262       .  A
N1840      O1844   1.245       .  A
N1840      O1843   1.258       .  A
C1845      C1846   1.422       .  A
C1845      C1850   1.429       .  A
C1845      H1852   1.080       .  S
C1846      C1847   1.414       .  A
C1847      C1848   1.405       .  A
C1847      N1854   1.433       .  S
C1848      C1849   1.426       .  A
C1848      H1853   1.074       .  S
C1849      C1850   1.446       .  A
C1850      N1851   1.435       .  S
N1851      O1855   1.261       .  A
N1851      O1856   1.262       .  A
N1854      O1858   1.263       .  A
N1854      O1857   1.259       .  A
C1859      C1860   1.369       .  A
C1859      C1864   1.372       .  A
C1859      H1866   1.074       .  S
C1860      C1861   1.439       .  A
C1861      C1862   1.455       .  A
C1861      N1868   1.431       .  S
C1862      C1863   1.434       .  A
C1862      H1867   1.073       .  S
C1863      C1864   1.427       .  A
C1864      N1865   1.400       .  S
N1865      O1869   1.256       .  A
N1865      O1870   1.255       .  A
N1868      O1872   1.262       .  A
N1868      O1871   1.262       .  A
C1873      C1874   1.415       .  A
C1873      C1878   1.440       .  A
C1873      H1880   1.078       .  S
C1874      C1875   1.438       .  A
C1875      C1876   1.404       .  A
C1875      N1882   1.442       .  S
C1876      C1877   1.420       .  A
C1876      H1881   1.080       .  S
C1877      C1878   1.444       .  A
C1878      N1879   1.444       .  S
N1879      O1883   1.263       .  A
N1879      O1884   1.259       .  A
N1882      O1886   1.264       .  A
N1882      O1885   1.258       .  A
C1887      C1888   1.423       .  A
C1887      C1892   1.394       .  A
C1887      H1894   1.074       .  S
C1888      C1889   1.429       .  A
C1889      C1890   1.395       .  A
C1889      N1896   1.420       .  S
C1890      C1891   1.387       .  A
C1890      H1895   1.085       .  S
C1891      C1892   1.400       .  A
C1892      N1893   1.430       .  S
N1893      O1897   1.262       .  A
N1893      O1898   1.262       .  A
N1896      O1900   1.261       .  A
N1896      O1899   1.263       .  A
C1901      C1902   1.398       .  A
C1901      C1906   1.402       .  A
C1901      H1908   1.084       .  S
C1902      C1903   1.405       .  A
C1903      C1904   1.391       .  A
C1903      N1910   1.430       .  S
C1904      C1905   1.416       .  A
C1904      H1909   1.074       .  S
C1905      C1906   1.430       .  A
C1906      N1907   1.429       .  S
N1907      O1911   1.263       .  A
N1907      O1912   1.261       .  A
N1910      O1914   1.262       .  A
N1910      O1913   1.262       .  A
C1915      C1916   1.412       .  A
C1915      C1920   1.391       .  A
C1915      H1922   1.079       .  S
C1916      C1917   1.428       .  A
C1917      C1918   1.400       .  A
C1917      N1924   1.431       .  S
C1918      C1919   1.397       .  A
C1918      H1923   1.084       .  S
C1919      C1920   1.406       .  A
C1920      N1921   1.430       .  S
N1921      O1925   1.262       .  A
N1921      O1926   1.262       .  A
N1924      O1928   1.262       .  A
N1924      O1927   1.262       .  A
C1929      C1930   1.396       .  A
C1929      C1934   1.419       .  A
C1929      H1936   1.084       .  S
C1930      C1931   1.408       .  A
C1931      C1932   1.416       .  A
C1931      N1938   1.429       .  S
C1932      C1933   1.430       .  A
C1932      H1937   1.076       .  S
C1933      C1934   1.449       .  A
C1934      N1935   1.430       .  S
N1935      O1939   1.264       .  A
N1935      O1940   1.262       .  A
N1938      O1942   1.262       .  A
N1938      O1941   1.262       .  A
C1943      C1944   1.400       .  A
C1943      C1948   1.405       .  A
C1943      H1950   1.084       .  S
C1944      C1945   1.402       .  A
C1945      C1946   1.390       .  A
C1945      N1952   1.430       .  S
C1946      C1947   1.416       .  A
C1946      H1951   1.072       .  S
C1947      C1948   1.433       .  A
C1948      N1949   1.430       .  S
N1949      O1953   1.263       .  A
N1949      O1954   1.261       .  A
N1952      O1956   1.262       .  A
N1952      O1955   1.262       .  A
C1957      C1958   1.407       .  A
C1957      C1962   1.419       .  A
C1957      H1964   1.084       .  S
C1958      C1959   1.406       .  A
C1959      C1960   1.401       .  A
C1959      N1966   1.430       .  S
C1960      C1961   1.421       .  A
C1960      H1965   1.076       .  S
C1961      C1962   1.439       .  A
C1962      N1963   1.440       .  S
N1963      O1967   1.263       .  A
N1963      O1968   1.260       .  A
N1966      O1970   1.262       .  A
N1966      O1969   1.262       .  A
C1971      C1972   1.402       .  A
C1971      C1976   1.413       .  A
C1971      H1978   1.084       .  S
C1972      C1973   1.407       .  A
C1973      C1974   1.401       .  A
C1973      N1980   1.429       .  S
C1974      C1975   1.420       .  A
C1974      H1979   1.076       .  S
C1975      C1976   1.434       .  A
C1976      N1977   1.429       .  S
N1977      O1981   1.262       .  A
N1977      O1982   1.262       .  A
N1980      O1984   1.262       .  A
N1980      O1983   1.262       .  A
C1985      C1986   1.389       .  A
C1985      C1990   1.396       .  A
C1985      H1992   1.084       .  S
C1986      C1987   1.411       .  A
C1987      C1988   1.415       .  A
C1987      N1994   1.428       .  S
C1988      C1989   1.420       .  A
C1988      H1993   1.078       .  S
C1989      C1990   1.442       .  A
C1990      N1991   1.427       .  S
N1991      O1995   1.262       .  A
N1991      O1996   1.262       .  A
N1994      O1998   1.262       .  A
N1994      O1997   1.262       .  A
N1999      N2000   1.320       .  A
N1999      N2005   1.316       .  A
N2000      C2007   1.359       .  A
N2001      N2003   1.316       .  A
N2001      N2002   1.321       .  A
N2002      C2008   1.354       .  A
N2003      N2004   1.316       .  A
N2004      C2008   1.351       .  A
N2005      N2006   1.324       .  A
N2005     Mn2350   2.196       .  S
N2006      C2007   1.352       .  A
C2007      C2319   1.494       .  S
C2008      C2235   1.478       .  S
N2009      N2015   1.316       .  A
N2009      N2010   1.322       .  A
N2010      C2018   1.355       .  A
N2011      N2012   1.318       .  A
N2011      N2013   1.314       .  A
N2011     Mn2017   2.199   1_655  S
N2012      C2019   1.353       .  A
N2013      N2014   1.320       .  A
N2013     Mn2039   2.190   1_655  S
N2014      C2019   1.353       .  A
N2015      N2016   1.325       .  A
N2016      C2018   1.358       .  A
Mn2017     N2338   2.194   1_455  S
C2018      C2305   1.497       .  S
C2019      C2277   1.478       .  S
N2020      N2021   1.329       .  A
N2020      N2026   1.319       .  A
N2020     Mn2028   2.238       .  S
N2021      C2029   1.358       .  A
N2022      N2024   1.315       .  A
N2022      N2023   1.318       .  A
N2023      C2030   1.352       .  A
N2024      N2025   1.320       .  A
N2025      C2030   1.352       .  A
N2026      N2027   1.331       .  A
N2026     Mn2040   2.264   1_554  S
N2027      C2029   1.364       .  A
Mn2028    Cl2041   2.549   1_554  S
C2029      C2263   1.522       .  S
C2030      C2252   1.476       .  S
N2031      N2032   1.326       .  A
N2031      N2037   1.318       .  A
N2032      C2042   1.357       .  A
N2033      N2034   1.317       .  A
N2033      N2035   1.317       .  A
N2033     Mn2373   2.198       .  S
N2034      C2043   1.353       .  A
N2035      N2036   1.317       .  A
N2036      C2043   1.348       .  A
N2037      N2038   1.324       .  A
N2038      C2042   1.358       .  A
Mn2040     N2366   2.197       .  S
Mn2040    Cl2041   2.549       .  S
C2042      C2291   1.505       .  S
C2043      C2224   1.466       .  S
C2044      C2179   1.616       .  S
C2044      C2193   1.585       .  S
C2044      C2207   1.626       .  S
C2044      C2221   1.562       .  S
C2045      C2154   1.628       .  S
C2045      C2165   1.602       .  S
C2045      C2210   1.625       .  S
C2045      C2308   1.576       .  S
C2046      C2123   1.636       .  S
C2046      C2137   1.602       .  S
C2046      C2151   1.629       .  S
C2046      C2238   1.556       .  S
C2047      C2109   1.651       .  S
C2047      C2126   1.605       .  S
C2047      C2182   1.619       .  S
C2047      C2266   1.622       .  S
C2048      C2081   1.614       .  S
C2048      C2095   1.612       .  S
C2048      C2196   1.640       .  S
C2048      C2294   1.577       .  S
C2049      C2067   1.640       .  S
C2049      C2084   1.610       .  S
C2049      C2112   1.652       .  S
C2049      C2249   1.544       .  S
C2050      C2053   1.610       .  S
C2050      C2070   1.651       .  S
C2050      C2140   1.608       .  S
C2050      C2322   1.581       .  S
C2051      C2056   1.609       .  S
C2051      C2098   1.627       .  S
C2051      C2168   1.602       .  S
C2051      C2280   1.560       .  S
C2052      C2053   1.421       .  A
C2052      C2057   1.426       .  A
C2052      H2059   1.065       .  S
C2053      C2054   1.446       .  A
C2054      C2055   1.402       .  A
C2054      N2061   1.430       .  S
C2055      C2056   1.412       .  A
C2055      H2060   1.080       .  S
C2056      C2057   1.421       .  A
C2057      N2058   1.432       .  S
N2058      O2062   1.262       .  A
N2058      O2063   1.262       .  A
N2061      O2065   1.260       .  A
N2061      O2064   1.257       .  A
C2066      C2067   1.424       .  A
C2066      C2071   1.444       .  A
C2066      H2073   1.082       .  S
C2067      C2068   1.423       .  A
C2068      C2069   1.436       .  A
C2068      N2075   1.438       .  S
C2069      C2070   1.430       .  A
C2069      H2074   1.081       .  S
C2070      C2071   1.447       .  A
C2071      N2072   1.429       .  S
N2072      O2076   1.263       .  A
N2072      O2077   1.262       .  A
N2075      O2079   1.261       .  A
N2075      O2078   1.262       .  A
C2080      C2081   1.371       .  A
C2080      C2085   1.348       .  A
C2080      H2087   1.023       .  S
C2081      C2082   1.463       .  A
C2082      C2083   1.467       .  A
C2082      N2089   1.433       .  S
C2083      C2084   1.436       .  A
C2083      H2088   1.081       .  S
C2084      C2085   1.373       .  A
C2085      N2086   1.378       .  S
N2086      O2090   1.253       .  A
N2086      O2091   1.255       .  A
N2089      O2093   1.260       .  A
N2089      O2092   1.262       .  A
C2094      C2095   1.423       .  A
C2094      C2099   1.435       .  A
C2094      H2101   1.083       .  S
C2095      C2096   1.414       .  A
C2096      C2097   1.404       .  A
C2096      N2103   1.429       .  S
C2097      C2098   1.417       .  A
C2097      H2102   1.058       .  S
C2098      C2099   1.446       .  A
C2099      N2100   1.432       .  S
N2100      O2104   1.262       .  A
N2100      O2105   1.262       .  A
N2103      O2107   1.262       .  A
N2103      O2106   1.262       .  A
C2108      C2109   1.433       .  A
C2108      C2113   1.456       .  A
C2108      H2115   1.064       .  S
C2109      C2110   1.446       .  A
C2110      C2111   1.403       .  A
C2110      N2117   1.419       .  S
C2111      C2112   1.403       .  A
C2111      H2116   1.078       .  S
C2112      C2113   1.440       .  A
C2113      N2114   1.433       .  S
N2114      O2118   1.263       .  A
N2114      O2119   1.261       .  A
N2117      O2121   1.258       .  A
N2117      O2120   1.264       .  A
C2122      C2123   1.412       .  A
C2122      C2127   1.395       .  A
C2122      H2129   1.081       .  S
C2123      C2124   1.432       .  A
C2124      C2125   1.438       .  A
C2124      N2131   1.435       .  S
C2125      C2126   1.430       .  A
C2125      H2130   1.083       .  S
C2126      C2127   1.418       .  A
C2127      N2128   1.407       .  S
N2128      O2132   1.262       .  A
N2128      O2133   1.252       .  A
N2131      O2135   1.263       .  A
N2131      O2134   1.262       .  A
C2136      C2137   1.375       .  A
C2136      C2141   1.383       .  A
C2136      H2143   1.080       .  S
C2137      C2138   1.434       .  A
C2138      C2139   1.448       .  A
C2138      N2145   1.429       .  S
C2139      C2140   1.434       .  A
C2139      H2144   1.082       .  S
C2140      C2141   1.436       .  A
C2141      N2142   1.428       .  S
N2142      O2146   1.263       .  A
N2142      O2147   1.244       .  A
N2145      O2149   1.262       .  A
N2145      O2148   1.262       .  A
C2150      C2151   1.427       .  A
C2150      C2155   1.432       .  A
C2150      H2157   1.080       .  S
C2151      C2152   1.421       .  A
C2152      C2153   1.426       .  A
C2152      N2159   1.440       .  S
C2153      C2154   1.420       .  A
C2153      H2158   1.057       .  S
C2154      C2155   1.440       .  A
C2155      N2156   1.432       .  S
N2156      O2160   1.262       .  A
N2156      O2161   1.261       .  A
N2159      O2163   1.261       .  A
N2159      O2162   1.262       .  A
C2164      C2165   1.435       .  A
C2164      C2169   1.455       .  A
C2164      H2171   1.080       .  S
C2165      C2166   1.401       .  A
C2166      C2167   1.372       .  A
C2166      N2173   1.406       .  S
C2167      C2168   1.378       .  A
C2167      H2172   1.051       .  S
C2168      C2169   1.439       .  A
C2169      N2170   1.433       .  S
N2170      O2174   1.262       .  A
N2170      O2175   1.262       .  A
N2173      O2177   1.245       .  A
N2173      O2176   1.258       .  A
C2178      C2179   1.423       .  A
C2178      C2183   1.431       .  A
C2178      H2185   1.081       .  S
C2179      C2180   1.413       .  A
C2180      C2181   1.405       .  A
C2180      N2187   1.434       .  S
C2181      C2182   1.428       .  A
C2181      H2186   1.074       .  S
C2182      C2183   1.447       .  A
C2183      N2184   1.435       .  S
N2184      O2188   1.261       .  A
N2184      O2189   1.262       .  A
N2187      O2191   1.263       .  A
N2187      O2190   1.259       .  A
C2192      C2193   1.370       .  A
C2192      C2197   1.372       .  A
C2192      H2199   1.074       .  S
C2193      C2194   1.438       .  A
C2194      C2195   1.455       .  A
C2194      N2201   1.430       .  S
C2195      C2196   1.435       .  A
C2195      H2200   1.074       .  S
C2196      C2197   1.426       .  A
C2197      N2198   1.401       .  S
N2198      O2202   1.256       .  A
N2198      O2203   1.255       .  A
N2201      O2205   1.262       .  A
N2201      O2204   1.262       .  A
C2206      C2207   1.414       .  A
C2206      C2211   1.438       .  A
C2206      H2213   1.077       .  S
C2207      C2208   1.439       .  A
C2208      C2209   1.403       .  A
C2208      N2215   1.442       .  S
C2209      C2210   1.419       .  A
C2209      H2214   1.080       .  S
C2210      C2211   1.443       .  A
C2211      N2212   1.444       .  S
N2212      O2216   1.263       .  A
N2212      O2217   1.259       .  A
N2215      O2219   1.264       .  A
N2215      O2218   1.258       .  A
C2220      C2221   1.423       .  A
C2220      C2225   1.394       .  A
C2220      H2227   1.074       .  S
C2221      C2222   1.428       .  A
C2222      C2223   1.395       .  A
C2222      N2229   1.420       .  S
C2223      C2224   1.388       .  A
C2223      H2228   1.085       .  S
C2224      C2225   1.400       .  A
C2225      N2226   1.430       .  S
N2226      O2230   1.262       .  A
N2226      O2231   1.262       .  A
N2229      O2233   1.261       .  A
N2229      O2232   1.263       .  A
C2234      C2235   1.398       .  A
C2234      C2239   1.403       .  A
C2234      H2241   1.084       .  S
C2235      C2236   1.405       .  A
C2236      C2237   1.392       .  A
C2236      N2243   1.430       .  S
C2237      C2238   1.416       .  A
C2237      H2242   1.074       .  S
C2238      C2239   1.430       .  A
C2239      N2240   1.429       .  S
N2240      O2244   1.263       .  A
N2240      O2245   1.261       .  A
N2243      O2247   1.262       .  A
N2243      O2246   1.262       .  A
C2248      C2249   1.413       .  A
C2248      C2253   1.393       .  A
C2248      H2255   1.079       .  S
C2249      C2250   1.428       .  A
C2250      C2251   1.402       .  A
C2250      N2257   1.431       .  S
C2251      C2252   1.399       .  A
C2251      H2256   1.084       .  S
C2252      C2253   1.405       .  A
C2253      N2254   1.429       .  S
N2254      O2258   1.262       .  A
N2254      O2259   1.262       .  A
N2257      O2261   1.262       .  A
N2257      O2260   1.262       .  A
C2262      C2263   1.397       .  A
C2262      C2267   1.421       .  A
C2262      H2269   1.084       .  S
C2263      C2264   1.409       .  A
C2264      C2265   1.418       .  A
C2264      N2271   1.429       .  S
C2265      C2266   1.429       .  A
C2265      H2270   1.075       .  S
C2266      C2267   1.451       .  A
C2267      N2268   1.429       .  S
N2268      O2272   1.264       .  A
N2268      O2273   1.262       .  A
N2271      O2275   1.262       .  A
N2271      O2274   1.262       .  A
C2276      C2277   1.399       .  A
C2276      C2281   1.405       .  A
C2276      H2283   1.084       .  S
C2277      C2278   1.402       .  A
C2278      C2279   1.390       .  A
C2278      N2285   1.430       .  S
C2279      C2280   1.417       .  A
C2279      H2284   1.074       .  S
C2280      C2281   1.432       .  A
C2281      N2282   1.430       .  S
N2282      O2286   1.263       .  A
N2282      O2287   1.261       .  A
N2285      O2289   1.262       .  A
N2285      O2288   1.262       .  A
C2290      C2291   1.407       .  A
C2290      C2295   1.419       .  A
C2290      H2297   1.084       .  S
C2291      C2292   1.407       .  A
C2292      C2293   1.401       .  A
C2292      N2299   1.430       .  S
C2293      C2294   1.421       .  A
C2293      H2298   1.076       .  S
C2294      C2295   1.439       .  A
C2295      N2296   1.440       .  S
N2296      O2300   1.263       .  A
N2296      O2301   1.260       .  A
N2299      O2303   1.262       .  A
N2299      O2302   1.262       .  A
C2304      C2305   1.402       .  A
C2304      C2309   1.412       .  A
C2304      H2311   1.084       .  S
C2305      C2306   1.407       .  A
C2306      C2307   1.401       .  A
C2306      N2313   1.430       .  S
C2307      C2308   1.421       .  A
C2307      H2312   1.076       .  S
C2308      C2309   1.434       .  A
C2309      N2310   1.429       .  S
N2310      O2314   1.262       .  A
N2310      O2315   1.263       .  A
N2313      O2317   1.262       .  A
N2313      O2316   1.262       .  A
C2318      C2319   1.389       .  A
C2318      C2323   1.396       .  A
C2318      H2325   1.084       .  S
C2319      C2320   1.411       .  A
C2320      C2321   1.413       .  A
C2320      N2327   1.428       .  S
C2321      C2322   1.420       .  A
C2321      H2326   1.078       .  S
C2322      C2323   1.441       .  A
C2323      N2324   1.427       .  S
N2324      O2328   1.262       .  A
N2324      O2329   1.262       .  A
N2327      O2331   1.262       .  A
N2327      O2330   1.262       .  A
N2332      N2333   1.320       .  A
N2332      N2338   1.316       .  A
N2333      C2340   1.359       .  A
N2334      N2336   1.316       .  A
N2334      N2335   1.321       .  A
N2335      C2341   1.355       .  A
N2336      N2337   1.317       .  A
N2337      C2341   1.350       .  A
N2338      N2339   1.324       .  A
N2339      C2340   1.352       .  A
C2340      C2652   1.492       .  S
C2341      C2568   1.480       .  S
N2342      N2348   1.315       .  A
N2342      N2343   1.322       .  A
N2343      C2351   1.356       .  A
N2344      N2345   1.318       .  A
N2344      N2346   1.314       .  A
N2344     Mn2350   2.199   1_556  S
N2345      C2352   1.352       .  A
N2346      N2347   1.320       .  A
N2346     Mn2372   2.191   1_655  S
N2347      C2352   1.353       .  A
N2348      N2349   1.325       .  A
N2349      C2351   1.358       .  A
C2351      C2638   1.499       .  S
C2352      C2610   1.478       .  S
N2353      N2354   1.328       .  A
N2353      N2359   1.319       .  A
N2353     Mn2361   2.238       .  S
N2354      C2362   1.358       .  A
N2355      N2357   1.315       .  A
N2355      N2356   1.317       .  A
N2356      C2363   1.351       .  A
N2357      N2358   1.320       .  A
N2358      C2363   1.353       .  A
N2359      N2360   1.331       .  A
N2359     Mn2373   2.263       .  S
N2360      C2362   1.364       .  A
Mn2361    Cl2374   2.550       .  S
C2362      C2596   1.520       .  S
C2363      C2585   1.475       .  S
N2364      N2365   1.325       .  A
N2364      N2370   1.318       .  A
N2365      C2375   1.355       .  A
N2366      N2367   1.317       .  A
N2366      N2368   1.316       .  A
N2367      C2376   1.353       .  A
N2368      N2369   1.317       .  A
N2369      C2376   1.348       .  A
N2370      N2371   1.323       .  A
N2371      C2375   1.357       .  A
Mn2373    Cl2374   2.551       .  S
C2375      C2624   1.500       .  S
C2376      C2557   1.466       .  S
C2377      C2512   1.618       .  S
C2377      C2526   1.584       .  S
C2377      C2540   1.628       .  S
C2377      C2554   1.562       .  S
C2378      C2487   1.629       .  S
C2378      C2498   1.601       .  S
C2378      C2543   1.627       .  S
C2378      C2641   1.578       .  S
C2379      C2456   1.635       .  S
C2379      C2470   1.603       .  S
C2379      C2484   1.631       .  S
C2379      C2571   1.556       .  S
C2380      C2442   1.651       .  S
C2380      C2459   1.606       .  S
C2380      C2515   1.621       .  S
C2380      C2599   1.621       .  S
C2381      C2414   1.612       .  S
C2381      C2428   1.610       .  S
C2381      C2529   1.640       .  S
C2381      C2627   1.572       .  S
C2382      C2400   1.639       .  S
C2382      C2417   1.609       .  S
C2382      C2445   1.653       .  S
C2382      C2582   1.543       .  S
C2383      C2386   1.611       .  S
C2383      C2403   1.651       .  S
C2383      C2473   1.607       .  S
C2383      C2655   1.581       .  S
C2384      C2389   1.608       .  S
C2384      C2431   1.626       .  S
C2384      C2501   1.601       .  S
C2384      C2613   1.559       .  S
C2385      C2386   1.421       .  A
C2385      C2390   1.427       .  A
C2385      H2392   1.066       .  S
C2386      C2387   1.446       .  A
C2387      C2388   1.401       .  A
C2387      N2394   1.430       .  S
C2388      C2389   1.410       .  A
C2388      H2393   1.080       .  S
C2389      C2390   1.421       .  A
C2390      N2391   1.432       .  S
N2391      O2395   1.262       .  A
N2391      O2396   1.262       .  A
N2394      O2398   1.260       .  A
N2394      O2397   1.256       .  A
C2399      C2400   1.423       .  A
C2399      C2404   1.442       .  A
C2399      H2406   1.082       .  S
C2400      C2401   1.423       .  A
C2401      C2402   1.436       .  A
C2401      N2408   1.438       .  S
C2402      C2403   1.430       .  A
C2402      H2407   1.081       .  S
C2403      C2404   1.446       .  A
C2404      N2405   1.428       .  S
N2405      O2409   1.263       .  A
N2405      O2410   1.262       .  A
N2408      O2412   1.261       .  A
N2408      O2411   1.262       .  A
C2413      C2414   1.369       .  A
C2413      C2418   1.345       .  A
C2413      H2420   1.047       .  S
C2414      C2415   1.464       .  A
C2415      C2416   1.466       .  A
C2415      N2422   1.433       .  S
C2416      C2417   1.436       .  A
C2416      H2421   1.082       .  S
C2417      C2418   1.373       .  A
C2418      N2419   1.378       .  S
N2419      O2423   1.253       .  A
N2419      O2424   1.255       .  A
N2422      O2426   1.260       .  A
N2422      O2425   1.261       .  A
C2427      C2428   1.423       .  A
C2427      C2432   1.434       .  A
C2427      H2434   1.083       .  S
C2428      C2429   1.413       .  A
C2429      C2430   1.403       .  A
C2429      N2436   1.428       .  S
C2430      C2431   1.417       .  A
C2430      H2435   1.059       .  S
C2431      C2432   1.446       .  A
C2432      N2433   1.432       .  S
N2433      O2437   1.261       .  A
N2433      O2438   1.262       .  A
N2436      O2440   1.262       .  A
N2436      O2439   1.261       .  A
C2441      C2442   1.433       .  A
C2441      C2446   1.457       .  A
C2441      H2448   1.065       .  S
C2442      C2443   1.445       .  A
C2443      C2444   1.404       .  A
C2443      N2450   1.419       .  S
C2444      C2445   1.403       .  A
C2444      H2449   1.078       .  S
C2445      C2446   1.441       .  A
C2446      N2447   1.434       .  S
N2447      O2451   1.263       .  A
N2447      O2452   1.261       .  A
N2450      O2454   1.258       .  A
N2450      O2453   1.264       .  A
C2455      C2456   1.411       .  A
C2455      C2460   1.394       .  A
C2455      H2462   1.081       .  S
C2456      C2457   1.432       .  A
C2457      C2458   1.438       .  A
C2457      N2464   1.436       .  S
C2458      C2459   1.430       .  A
C2458      H2463   1.083       .  S
C2459      C2460   1.418       .  A
C2460      N2461   1.407       .  S
N2461      O2465   1.262       .  A
N2461      O2466   1.252       .  A
N2464      O2468   1.263       .  A
N2464      O2467   1.262       .  A
C2469      C2470   1.376       .  A
C2469      C2474   1.382       .  A
C2469      H2476   1.079       .  S
C2470      C2471   1.435       .  A
C2471      C2472   1.448       .  A
C2471      N2478   1.429       .  S
C2472      C2473   1.434       .  A
C2472      H2477   1.082       .  S
C2473      C2474   1.435       .  A
C2474      N2475   1.428       .  S
N2475      O2479   1.263       .  A
N2475      O2480   1.244       .  A
N2478      O2482   1.262       .  A
N2478      O2481   1.262       .  A
C2483      C2484   1.426       .  A
C2483      C2488   1.432       .  A
C2483      H2490   1.080       .  S
C2484      C2485   1.422       .  A
C2485      C2486   1.428       .  A
C2485      N2492   1.439       .  S
C2486      C2487   1.419       .  A
C2486      H2491   1.058       .  S
C2487      C2488   1.441       .  A
C2488      N2489   1.433       .  S
N2489      O2493   1.262       .  A
N2489      O2494   1.261       .  A
N2492      O2496   1.262       .  A
N2492      O2495   1.262       .  A
C2497      C2498   1.434       .  A
C2497      C2502   1.454       .  A
C2497      H2504   1.080       .  S
C2498      C2499   1.402       .  A
C2499      C2500   1.372       .  A
C2499      N2506   1.407       .  S
C2500      C2501   1.378       .  A
C2500      H2505   1.051       .  S
C2501      C2502   1.439       .  A
C2502      N2503   1.433       .  S
N2503      O2507   1.262       .  A
N2503      O2508   1.262       .  A
N2506      O2510   1.245       .  A
N2506      O2509   1.258       .  A
C2511      C2512   1.423       .  A
C2511      C2516   1.431       .  A
C2511      H2518   1.081       .  S
C2512      C2513   1.412       .  A
C2513      C2514   1.406       .  A
C2513      N2520   1.433       .  S
C2514      C2515   1.428       .  A
C2514      H2519   1.073       .  S
C2515      C2516   1.448       .  A
C2516      N2517   1.436       .  S
N2517      O2521   1.261       .  A
N2517      O2522   1.262       .  A
N2520      O2524   1.263       .  A
N2520      O2523   1.259       .  A
C2525      C2526   1.370       .  A
C2525      C2530   1.372       .  A
C2525      H2532   1.074       .  S
C2526      C2527   1.438       .  A
C2527      C2528   1.455       .  A
C2527      N2534   1.430       .  S
C2528      C2529   1.434       .  A
C2528      H2533   1.073       .  S
C2529      C2530   1.425       .  A
C2530      N2531   1.399       .  S
N2531      O2535   1.256       .  A
N2531      O2536   1.255       .  A
N2534      O2538   1.262       .  A
N2534      O2537   1.262       .  A
C2539      C2540   1.414       .  A
C2539      C2544   1.439       .  A
C2539      H2546   1.078       .  S
C2540      C2541   1.439       .  A
C2541      C2542   1.404       .  A
C2541      N2548   1.443       .  S
C2542      C2543   1.420       .  A
C2542      H2547   1.080       .  S
C2543      C2544   1.443       .  A
C2544      N2545   1.444       .  S
N2545      O2549   1.263       .  A
N2545      O2550   1.259       .  A
N2548      O2552   1.264       .  A
N2548      O2551   1.257       .  A
C2553      C2554   1.423       .  A
C2553      C2558   1.394       .  A
C2553      H2560   1.074       .  S
C2554      C2555   1.428       .  A
C2555      C2556   1.395       .  A
C2555      N2562   1.419       .  S
C2556      C2557   1.388       .  A
C2556      H2561   1.085       .  S
C2557      C2558   1.400       .  A
C2558      N2559   1.430       .  S
N2559      O2563   1.262       .  A
N2559      O2564   1.262       .  A
N2562      O2566   1.262       .  A
N2562      O2565   1.263       .  A
C2567      C2568   1.398       .  A
C2567      C2572   1.403       .  A
C2567      H2574   1.084       .  S
C2568      C2569   1.406       .  A
C2569      C2570   1.393       .  A
C2569      N2576   1.430       .  S
C2570      C2571   1.416       .  A
C2570      H2575   1.075       .  S
C2571      C2572   1.430       .  A
C2572      N2573   1.429       .  S
N2573      O2577   1.263       .  A
N2573      O2578   1.261       .  A
N2576      O2580   1.262       .  A
N2576      O2579   1.262       .  A
C2581      C2582   1.413       .  A
C2581      C2586   1.392       .  A
C2581      H2588   1.079       .  S
C2582      C2583   1.428       .  A
C2583      C2584   1.402       .  A
C2583      N2590   1.431       .  S
C2584      C2585   1.399       .  A
C2584      H2589   1.084       .  S
C2585      C2586   1.406       .  A
C2586      N2587   1.429       .  S
N2587      O2591   1.262       .  A
N2587      O2592   1.262       .  A
N2590      O2594   1.262       .  A
N2590      O2593   1.262       .  A
C2595      C2596   1.397       .  A
C2595      C2600   1.421       .  A
C2595      H2602   1.084       .  S
C2596      C2597   1.409       .  A
C2597      C2598   1.418       .  A
C2597      N2604   1.429       .  S
C2598      C2599   1.429       .  A
C2598      H2603   1.075       .  S
C2599      C2600   1.451       .  A
C2600      N2601   1.429       .  S
N2601      O2605   1.263       .  A
N2601      O2606   1.262       .  A
N2604      O2608   1.262       .  A
N2604      O2607   1.262       .  A
C2609      C2610   1.399       .  A
C2609      C2614   1.405       .  A
C2609      H2616   1.084       .  S
C2610      C2611   1.403       .  A
C2611      C2612   1.391       .  A
C2611      N2618   1.430       .  S
C2612      C2613   1.416       .  A
C2612      H2617   1.074       .  S
C2613      C2614   1.432       .  A
C2614      N2615   1.430       .  S
N2615      O2619   1.263       .  A
N2615      O2620   1.261       .  A
N2618      O2622   1.262       .  A
N2618      O2621   1.262       .  A
C2623      C2624   1.406       .  A
C2623      C2628   1.417       .  A
C2623      H2630   1.084       .  S
C2624      C2625   1.405       .  A
C2625      C2626   1.398       .  A
C2625      N2632   1.430       .  S
C2626      C2627   1.420       .  A
C2626      H2631   1.076       .  S
C2627      C2628   1.438       .  A
C2628      N2629   1.440       .  S
N2629      O2633   1.263       .  A
N2629      O2634   1.260       .  A
N2632      O2636   1.262       .  A
N2632      O2635   1.262       .  A
C2637      C2638   1.403       .  A
C2637      C2642   1.414       .  A
C2637      H2644   1.084       .  S
C2638      C2639   1.406       .  A
C2639      C2640   1.400       .  A
C2639      N2646   1.429       .  S
C2640      C2641   1.421       .  A
C2640      H2645   1.075       .  S
C2641      C2642   1.434       .  A
C2642      N2643   1.429       .  S
N2643      O2647   1.262       .  A
N2643      O2648   1.262       .  A
N2646      O2650   1.262       .  A
N2646      O2649   1.262       .  A
C2651      C2652   1.388       .  A
C2651      C2656   1.395       .  A
C2651      H2658   1.084       .  S
C2652      C2653   1.411       .  A
C2653      C2654   1.413       .  A
C2653      N2660   1.428       .  S
C2654      C2655   1.420       .  A
C2654      H2659   1.078       .  S
C2655      C2656   1.440       .  A
C2656      N2657   1.426       .  S
N2657      O2661   1.263       .  A
N2657      O2662   1.262       .  A
N2660      O2664   1.262       .  A
N2660      O2663   1.262       .  A
