geometry optimzed in LAMMPS
_audit_creation_date              2020-12-01 
_audit_creation_method            'lammps2cif' 
_symmetry_space_group_name_H-M    'P1' 
_symmetry_Int_Tables_number       1 
_symmetry_cell_setting            triclinic 
loop_ 
_symmetry_equiv_pos_as_xyz 
  x,y,z 
_cell_length_a                    38.83121973 
_cell_length_b                    39.831166310040224 
_cell_length_c                    39.48281255311022 
_cell_angle_alpha                 89.99739900664059 
_cell_angle_beta                  90.001485883698 
_cell_angle_gamma                 80.70831620067668 
loop_ 
_atom_site_label 
_atom_site_type_symbol 
_atom_site_fract_x 
_atom_site_fract_y 
_atom_site_fract_z 
_atom_site_charge 
C1          C  0.43967492  0.45007852  0.30226198    -0.00600
C2          C  0.23666385  0.25747586  0.30121781    -0.00600
C3          C  0.42958970  0.26271057  0.48881359    -0.00600
C4          C  0.24776301  0.44170851  0.49052650    -0.00600
C5          C  0.48510124  0.00869635  0.23323356    -0.00600
C6          C  0.99980622  0.19206190  0.04234982    -0.00600
C7          C  0.17713016  0.01176584  0.04188850    -0.00600
C8          C  0.19190567  0.19848598  0.23223177    -0.00600
Zr9        Zr  0.42655426  0.44406550  0.47745028     2.17500
O10         O  0.38143974  0.43496990  0.43684198    -0.49400
O11         O  0.43506783  0.38217418  0.48090831    -0.72600
O12         O  0.44468150  0.44318805  0.41851011    -0.79400
O13         O  0.35608343  0.46468360  0.04606702    -0.81100
O14         O  0.49493726  0.46512567  0.41270978    -0.76800
O15         O  0.36621371  0.44508535  0.49205449    -0.88400
O16         O  0.47189278  0.36475361  0.02434106    -0.74400
O17         O  0.48796829  0.42848512  0.48382202    -0.83800
O18         O  0.43396063  0.42980187  0.03560499    -0.83500
O19         O  0.44942212  0.49470539  0.46241258    -0.70300
O20         O  0.40151290  0.49423719  0.00893955    -0.82400
Zr21       Zr  0.49768262  0.51248180  0.05874730     2.26400
Zr22       Zr  0.01183159  0.47876252  0.46997135     2.06300
Zr23       Zr  0.41090854  0.47962479  0.06717713     2.10000
Zr24       Zr  0.49531099  0.41413160  0.04253716     1.78800
O25         O  0.36601030  0.02411959  0.08637997    -0.91200
O26         O  0.04770533  0.37893243  0.01924576    -0.39000
O27         O  0.47253974  0.46362140  0.07434760    -0.75700
O28         O  0.02236588  0.46212612  0.02838247    -0.94400
O29         O  0.48804406  0.02804528  0.00087203    -0.87700
O30         O  0.43554254  0.02810120  0.05272268    -0.90500
C31         C  0.45214783  0.35904668  0.49972678     1.03200
C32         C  0.34633971  0.45352990  0.01766346     1.16200
C33         C  0.46892023  0.45279480  0.40078245     1.07000
O34         O  0.05980021  0.43830584  0.44693015    -0.92700
O35         O  0.06653543  0.49569963  0.48909379    -0.88400
O36         O  0.05753850  0.01295492  0.04281768    -0.81600
C37         C  0.07676606  0.50659887  0.01755934     1.13600
O38         O  0.37733797  0.04835078  0.45502720    -0.94600
Zr39       Zr  0.42645413  0.04268839  0.99445825     1.88900
O40         O  0.48952999  0.07385598  0.05401824    -0.71300
O41         O  0.02493095  0.02253394  0.43079333    -0.50500
O42         O  0.43872475  0.07189475  0.44312646    -0.95200
O43         O  0.37887244  0.08274105  0.01921844    -0.52400
O44         O  0.45191031  0.09145552  0.01118886    -0.71800
C45         C  0.47372004  0.09664077  0.03403994     1.00500
O46         O  0.03321721  0.52566129  0.10676293    -0.60600
O47         O  0.39082668  0.44008540  0.10695008    -0.55400
O48         O  0.48305300  0.00646954  0.11743876    -0.92100
O49         O  0.43216783  0.48801943  0.12395795    -0.90500
O50         O  0.48203287  0.38512397  0.09410021    -0.90900
O51         O  0.04267869  0.40402863  0.08459861    -0.89700
C52         C  0.45844845  0.99778640  0.13524669     1.19400
H53         H  0.42143870  0.41160992  0.04165598     0.35300
H54         H  0.04688138  0.45515828  0.03302460     0.46200
H55         H  0.42704117  0.04679447  0.06764319     0.39700
H56         H  0.44343033  0.50179328  0.43952331     0.36200
H57         H  0.04813964  0.35623494  0.02956886     0.28000
H58         H  0.04046450  0.01014920  0.41342322     0.33900
H59         H  0.42711476  0.09568341  0.44629473     0.39800
H60         H  0.47696938  0.40337993  0.11127929     0.34300
H61         H  0.36700204  0.45098616  0.11346682     0.33200
H62         H  0.35492770  0.03436229  0.06542675     0.34800
H63         H  0.37668836  0.10317989  0.00460195     0.33800
H64         H  0.04145849  0.42606708  0.09655268     0.37800
H65         H  0.05323332  0.50681841  0.10802217     0.30500
H66         H  0.39119486  0.41463561  0.42346052     0.34800
H67         H  0.36893952  0.07306149  0.45288505     0.37600
H68         H  0.38727174  0.42007587  0.09329235     0.30200
H69         H  0.04340054  0.54581909  0.09970737     0.43100
H70         H  0.06962515  0.42481508  0.46673466     0.33200
H71         H  0.04083216  0.37458853  0.49434275     0.40800
H72         H  0.38801092  0.09021290  0.04086294     0.32600
H73         H  0.50234732  0.03193377  0.42121191     0.32700
H74         H  0.37908328  0.45428457  0.42071969     0.33000
Zr75       Zr  0.41997815  0.27428880  0.30257765     2.17500
O76         O  0.37865651  0.32360704  0.32121382    -0.49400
O77         O  0.42354422  0.26837521  0.36458873    -0.72600
O78         O  0.35949013  0.26333880  0.30355496    -0.79400
O79         O  0.48694179  0.33229912  0.27610623    -0.81100
O80         O  0.35850108  0.20915474  0.28581080    -0.76800
O81         O  0.43182387  0.33251738  0.29599460    -0.88400
O82         O  0.46464827  0.22333153  0.37882666    -0.74400
O83         O  0.43180090  0.21521232  0.31533631    -0.83800
O84         O  0.48085654  0.26196138  0.31532962    -0.83500
O85         O  0.40409854  0.24658579  0.25180692    -0.70300
O86         O  0.45055976  0.28737616  0.25262837    -0.82400
Zr87       Zr  0.00760598  0.18513424  0.22816068     2.26400
Zr88       Zr  0.41667679  0.18709666  0.26506306     2.06300
Zr89       Zr  0.01142929  0.27337943  0.26469854     2.10000
Zr90       Zr  0.49281878  0.20270062  0.32706491     1.78800
O91         O  0.02996455  0.30889182  0.22018672    -0.91200
O92         O  0.48045269  0.15242220  0.35690265    -0.39000
O93         O  0.02445224  0.21392289  0.27763940    -0.75700
O94         O  0.47756651  0.17300336  0.27853245    -0.94400
O95         O  0.44679106  0.19925632  0.21463977    -0.87700
O96         O  0.49691993  0.24481946  0.21486187    -0.90500
C97         C  0.44062056  0.24799627  0.38624219     1.03200
C98         C  0.45727975  0.34743527  0.28668327     1.16200
C99         C  0.34372341  0.23798482  0.29734482     1.07000
O100        O  0.39765478  0.14704889  0.30477560    -0.92700
O101        O  0.43812374  0.12869482  0.24902078    -0.88400
O102        O  0.49358139  0.12734903  0.22952008    -0.81600
C103        C  0.46740544  0.11299707  0.23802456     1.13600
O104        O  0.38762969  0.30525585  0.19536862    -0.94600
Zr105      Zr  0.43621365  0.25876558  0.20279720     1.88900
O106        O  0.00472641  0.19090569  0.16626531    -0.71300
O107        O  0.37777940  0.17507639  0.21983005    -0.50500
O108        O  0.38977526  0.24113671  0.16894245    -0.95200
O109        O  0.45321049  0.30834735  0.17509395    -0.52400
O110        O  0.46305060  0.23579832  0.15093164    -0.71800
C111        C  0.48717539  0.21103414  0.14380938     1.00500
O112        O  0.04922450  0.13631121  0.20889300    -0.60600
O113        O  0.04840455  0.29218957  0.30829549    -0.55400
O114        O  0.06833340  0.19512863  0.23146322    -0.92100
O115        O  0.07043096  0.24938435  0.24843416    -0.90500
O116        O  0.04122367  0.22094096  0.35903765    -0.90900
O117        O  0.04246756  0.15634608  0.33577044    -0.89700
C118        C  0.08477467  0.21990901  0.23818644     1.19400
H119        H  0.48668326  0.27539625  0.33423640     0.35300
H120        H  0.48365565  0.14962107  0.28550363     0.46200
H121        H  0.01098315  0.24951206  0.19623287     0.39700
H122        H  0.37990476  0.25346038  0.24576380     0.36200
H123        H  0.48922253  0.15463963  0.38020665     0.28000
H124        H  0.36320070  0.15967397  0.23028490     0.33900
H125        H  0.39824616  0.21701090  0.16323949     0.39800
H126        H  0.03999023  0.21109187  0.38197412     0.34300
H127        H  0.06403301  0.27127263  0.31548515     0.33200
H128        H  0.04490069  0.32318715  0.23180849     0.34800
H129        H  0.47252076  0.29919443  0.15964165     0.33800
H130        H  0.04902941  0.14824135  0.31260615     0.37800
H131        H  0.06250586  0.14488943  0.19022572     0.30500
H132        H  0.36618014  0.31575564  0.34084343     0.34800
H133        H  0.38476219  0.30834228  0.17058875     0.37600
H134        H  0.06377953  0.30555099  0.29596140     0.30200
H135        H  0.06621969  0.13109483  0.22755293     0.43100
H136        H  0.39663872  0.15870719  0.32698662     0.33200
H137        H  0.45474634  0.15604914  0.35931738     0.40800
H138        H  0.46449475  0.32000307  0.19311757     0.32600
H139        H  0.36159729  0.19671880  0.21640038     0.32700
H140        H  0.36094692  0.32782507  0.30302972     0.33000
Zr141      Zr  0.25027490  0.26006797  0.47555275     2.17500
O142        O  0.29653927  0.26301490  0.43418458    -0.49400
O143        O  0.24291135  0.32192966  0.47985238    -0.72600
O144        O  0.23088865  0.26361338  0.41707690    -0.79400
O145        O  0.32059602  0.24095433  0.04355630    -0.81100
O146        O  0.18058477  0.24166024  0.41138177    -0.76800
O147        O  0.31046884  0.26042380  0.48985343    -0.88400
O148        O  0.20502786  0.33899088  0.02249259    -0.74400
O149        O  0.18892302  0.27619398  0.48246872    -0.83800
O150        O  0.24278579  0.27427774  0.03368375    -0.83500
O151        O  0.22622319  0.21023666  0.46007275    -0.70300
O152        O  0.27566249  0.20999977  0.00659054    -0.82400
Zr153      Zr  0.18033303  0.19065496  0.05695638     2.26400
Zr154      Zr  0.16439871  0.22620794  0.46824385     2.06300
Zr155      Zr  0.26651827  0.22448319  0.06486375     2.10000
Zr156      Zr  0.18135287  0.28943521  0.04058062     1.78800
O157        O  0.31014180  0.17772783  0.08464531    -0.91200
O158        O  0.13207552  0.32634744  0.01489422    -0.39000
O159        O  0.20489394  0.23997581  0.07221057    -0.75700
O160        O  0.15524560  0.24095670  0.02626864    -0.94400
O161        O  0.18922963  0.17519860  0.99926017    -0.87700
O162        O  0.24190596  0.17471514  0.05084760    -0.90500
C163        C  0.22644261  0.34481752  0.49938109     1.03200
C164        C  0.33016634  0.25229660  0.01516579     1.16200
C165        C  0.20649841  0.25420433  0.39943094     1.07000
O166        O  0.11630643  0.26671591  0.44546827    -0.92700
O167        O  0.10991670  0.20903843  0.48775878    -0.88400
O168        O  0.11982953  0.19083997  0.04188329    -0.81600
C169        C  0.10045265  0.19703503  0.01572388     1.13600
O170        O  0.30078396  0.15608425  0.45591037    -0.94600
Zr171      Zr  0.25084559  0.16069805  0.99239637     1.88900
O172        O  0.18887063  0.12891371  0.05201169    -0.71300
O173        O  0.15290567  0.18022944  0.43143308    -0.50500
O174        O  0.23764656  0.13284852  0.44023476    -0.95200
O175        O  0.29860031  0.12081748  0.01712595    -0.52400
O176        O  0.22559548  0.11162749  0.00839374    -0.71800
C177        C  0.20426386  0.10629523  0.03163939     1.00500
O178        O  0.14442126  0.17578298  0.10373950    -0.60600
O179        O  0.28646411  0.26332500  0.10543278    -0.55400
O180        O  0.19415038  0.19680793  0.11609554    -0.92100
O181        O  0.24581327  0.21626890  0.12184349    -0.90500
O182        O  0.19218970  0.31848856  0.09283472    -0.90900
O183        O  0.13220750  0.29847576  0.07969844    -0.89700
C184        C  0.21838147  0.20645409  0.13377069     1.19400
H185        H  0.25521047  0.29247123  0.03995888     0.35300
H186        H  0.13077482  0.24792821  0.03093061     0.46200
H187        H  0.25047610  0.15593484  0.06563772     0.39700
H188        H  0.23184248  0.20365459  0.43695390     0.36200
H189        H  0.12884631  0.34725397  0.02889830     0.28000
H190        H  0.13659665  0.19147878  0.41408942     0.33900
H191        H  0.24706296  0.10851464  0.44401009     0.39800
H192        H  0.20927495  0.30186042  0.10532682     0.34300
H193        H  0.30945088  0.25141176  0.11327187     0.33200
H194        H  0.32181852  0.16795316  0.06377129     0.34800
H195        H  0.30092381  0.10043522  0.00241945     0.33800
H196        H  0.13301012  0.27637565  0.09142516     0.37800
H197        H  0.12459302  0.19476345  0.10580580     0.30500
H198        H  0.28890486  0.28349265  0.42025294     0.34800
H199        H  0.30476164  0.13235661  0.44757343     0.37600
H200        H  0.29189126  0.28272222  0.09188175     0.30200
H201        H  0.13393122  0.15606630  0.09592087     0.43100
H202        H  0.10476884  0.27824377  0.46563362     0.33200
H203        H  0.13705979  0.32952655  0.49302878     0.40800
H204        H  0.28953501  0.11318416  0.03872495     0.32600
H205        H  0.17505586  0.17303135  0.41905283     0.32700
H206        H  0.29646209  0.24342142  0.41868793     0.33000
Zr207      Zr  0.25699195  0.43329540  0.30437604     2.17500
O208        O  0.29953963  0.38358384  0.31958647    -0.49400
O209        O  0.25338090  0.43779789  0.36640346    -0.72600
O210        O  0.31687059  0.44567475  0.30671417    -0.79400
O211        O  0.19001552  0.37542047  0.27722093    -0.81100
O212        O  0.31833514  0.49891298  0.28643782    -0.76800
O213        O  0.24483598  0.37509336  0.29796317    -0.88400
O214        O  0.21278085  0.48318478  0.38084246    -0.74400
O215        O  0.24539956  0.49245829  0.31682336    -0.83800
O216        O  0.19622182  0.44584463  0.31746042    -0.83500
O217        O  0.27274482  0.46089027  0.25352233    -0.70300
O218        O  0.22647264  0.42024572  0.25452030    -0.82400
Zr219      Zr  0.16932922  0.02223832  0.22848746     2.26400
Zr220      Zr  0.26015567  0.02030539  0.26546998     2.06300
Zr221      Zr  0.16566549  0.43417239  0.26710286     2.10000
Zr222      Zr  0.18463177  0.50511898  0.32925499     1.78800
O223        O  0.14372974  0.39809911  0.22509097    -0.91200
O224        O  0.20014011  0.05293157  0.35955986    -0.39000
O225        O  0.15331380  0.49358512  0.27954622    -0.75700
O226        O  0.19935182  0.03462730  0.27937806    -0.94400
O227        O  0.22980983  0.00856514  0.21507591    -0.87700
O228        O  0.17986124  0.46267247  0.21683895    -0.90500
C229        C  0.23648443  0.45815438  0.38816144     1.03200
C230        C  0.21952338  0.36025148  0.28803639     1.16200
C231        C  0.33281150  0.47059389  0.29925961     1.07000
O232        O  0.28200107  0.06020816  0.30340034    -0.92700
O233        O  0.23878923  0.07880542  0.25017843    -0.88400
O234        O  0.18383854  0.08010962  0.22940502    -0.81600
C235        C  0.20984556  0.09444625  0.23845205     1.13600
O236        O  0.28863032  0.40254738  0.19326719    -0.94600
Zr237      Zr  0.24056752  0.44869514  0.20454436     1.88900
O238        O  0.17104791  0.01606671  0.16642064    -0.71300
O239        O  0.29774601  0.03179566  0.21892003    -0.50500
O240        O  0.28758194  0.46667421  0.17174669    -0.95200
O241        O  0.22278518  0.39889617  0.17797750    -0.52400
O242        O  0.21340658  0.47135444  0.15286476    -0.71800
C243        C  0.18870732  0.99648365  0.14446810     1.00500
O244        O  0.12702438  0.07202561  0.21287734    -0.60600
O245        O  0.13027498  0.41665998  0.31276995    -0.55400
O246        O  0.10876425  0.01195436  0.23166532    -0.92100
O247        O  0.10639646  0.45867506  0.25228807    -0.90500
O248        O  0.13732690  0.48611822  0.36076843    -0.90900
O249        O  0.13639212  0.05125575  0.33751104    -0.89700
C250        C  0.09213357  0.48768768  0.24084548     1.19400
H251        H  0.19039417  0.43241263  0.33636044     0.35300
H252        H  0.19325000  0.05807300  0.28620884     0.46200
H253        H  0.16549398  0.45727585  0.19829493     0.39700
H254        H  0.29699633  0.45398802  0.24764906     0.36200
H255        H  0.19027565  0.05112036  0.38248271     0.28000
H256        H  0.30789847  0.05181331  0.22645125     0.33900
H257        H  0.27788291  0.48961046  0.16317771     0.39800
H258        H  0.14854155  0.47270141  0.38007026     0.34300
H259        H  0.11363375  0.43739226  0.31861134     0.33200
H260        H  0.12206901  0.39225715  0.23508627     0.34800
H261        H  0.19921611  0.40694286  0.16874137     0.33800
H262        H  0.12638161  0.05658770  0.31469819     0.37800
H263        H  0.11336626  0.06463575  0.19388860     0.30500
H264        H  0.31175394  0.39023641  0.33992223     0.34800
H265        H  0.28968617  0.40006743  0.16827341     0.37600
H266        H  0.11577302  0.40150833  0.30179394     0.30200
H267        H  0.11045113  0.07599977  0.23206852     0.43100
H268        H  0.26149933  0.07013171  0.31705052     0.33200
H269        H  0.22570926  0.04725145  0.36285427     0.40800
H270        H  0.21882326  0.38381458  0.19704222     0.32600
H271        H  0.31757174  0.01274698  0.21928362     0.32700
H272        H  0.31724217  0.38121977  0.30132574     0.33000
C273        C  0.12220509  0.21390191  0.23502189    -0.11300
C274        C  0.15371665  0.20804604  0.23357501    -0.12900
C275        C  0.20437864  0.20539960  0.19853673    -0.11300
C276        C  0.21319751  0.20706272  0.16950208    -0.12900
C277        C  0.20061682  0.16163207  0.23745071    -0.11300
C278        C  0.20549202  0.13091687  0.23761377    -0.12900
C279        C  0.19609944  0.07267130  0.03443259    -0.11300
C280        C  0.18773126  0.04495064  0.03671914    -0.12900
C281        C  0.18089668  0.00174686  0.10899817    -0.11300
C282        C  0.17798109  0.00506916  0.07860345    -0.12900
C283        C  0.11221034  0.01098996  0.02004818    -0.11300
C284        C  0.14175625  0.01225400  0.02871887    -0.12900
C285        C  0.99823966  0.20007696  0.07875363    -0.11300
C286        C  0.49466920  0.20506678  0.10843156    -0.12900
C287        C  0.06453627  0.19373344  0.02027601    -0.11300
C288        C  0.03511383  0.19233012  0.02928683    -0.12900
C289        C  0.48180134  0.13035517  0.03667386    -0.11300
C290        C  0.48948902  0.15844189  0.03807502    -0.12900
C291        C  0.47668761  0.04572162  0.23769111    -0.11300
C292        C  0.47191600  0.07646429  0.23747093    -0.12900
C293        C  0.05473853  0.49368840  0.23761776    -0.11300
C294        C  0.02349319  0.99909963  0.23464195    -0.12900
C295        C  0.47254121  0.00100196  0.19978854    -0.11300
C296        C  0.46347209  0.99825511  0.17096963    -0.12900
C297        C  0.22145815  0.46546712  0.00847435    -0.11300
C298        C  0.20143001  0.48569867  0.02464050    -0.12900
C299        C  0.23379217  0.37870972  0.49646494    -0.11300
C300        C  0.24024922  0.40721959  0.49493031    -0.12900
C301        C  0.31076913  0.44905744  0.01328329    -0.11300
C302        C  0.28230698  0.44415135  0.50426711    -0.12900
C303        C  0.24672699  0.44896088  0.45397324    -0.11300
C304        C  0.24386179  0.45265141  0.42364015    -0.12900
C305        C  0.45498071  0.23800431  0.00692217    -0.11300
C306        C  0.47482018  0.21738462  0.02291107    -0.12900
C307        C  0.43054715  0.25617393  0.45213427    -0.11300
C308        C  0.43317648  0.25304340  0.42173728    -0.12900
C309        C  0.39477537  0.26066867  0.50220125    -0.11300
C310        C  0.36568065  0.25696197  0.01084380    -0.12900
C311        C  0.43797495  0.29682466  0.49398155    -0.11300
C312        C  0.44499338  0.32510679  0.49619843    -0.12900
C313        C  0.20851887  0.21794615  0.25747122    -0.11300
C314        C  0.22149678  0.23575097  0.27702917    -0.12900
C315        C  0.27486601  0.24776626  0.30266755    -0.11300
C316        C  0.30643147  0.24271198  0.30180637    -0.12900
C317        C  0.22141956  0.25475374  0.33478342    -0.11300
C318        C  0.21107167  0.25505356  0.36355303    -0.12900
C319        C  0.22461930  0.32385914  0.28875348    -0.11300
C320        C  0.22908414  0.29334723  0.29155144    -0.12900
C321        C  0.46797191  0.49022242  0.25937054    -0.12900
C322        C  0.45494169  0.47224060  0.27866620    -0.12900
C323        C  0.44732181  0.41433568  0.29187666    -0.11300
C324        C  0.45213142  0.38388033  0.28813986    -0.12900
C325        C  0.46432138  0.45214808  0.36492660    -0.11300
C326        C  0.45455288  0.45237749  0.33599392    -0.12900
C327        C  0.40157449  0.46003117  0.30378948    -0.11300
C328        C  0.37005308  0.46565117  0.30344191    -0.12900
C329        C  0.44016630  0.45023350  0.80229204    -0.00600
C330        C  0.23684825  0.25685069  0.80150579    -0.00600
C331        C  0.42940186  0.26300057  0.98901935    -0.00600
C332        C  0.24782713  0.44154626  0.99037674    -0.00600
C333        C  0.48487341  0.00860138  0.73365217    -0.00600
C334        C  0.99947371  0.19155534  0.54215390    -0.00600
C335        C  0.17702784  0.01223341  0.54216665    -0.00600
C336        C  0.19163883  0.19846418  0.73249255    -0.00600
Zr337      Zr  0.42639197  0.44456784  0.97741812     2.17500
O338        O  0.38126609  0.43462002  0.93718430    -0.49400
O339        O  0.43505130  0.38260645  0.98097075    -0.72600
O340        O  0.44434036  0.44363744  0.91846515    -0.79400
O341        O  0.35654216  0.46231427  0.54666628    -0.81100
O342        O  0.49584505  0.46337358  0.91283433    -0.76800
O343        O  0.36591332  0.44631249  0.99182331    -0.88400
O344        O  0.47421441  0.36410936  0.52237721    -0.74400
O345        O  0.48765102  0.42835076  0.98405635    -0.83800
O346        O  0.43452845  0.42889469  0.53553438    -0.83500
O347        O  0.45010451  0.49466828  0.96186636    -0.70300
O348        O  0.40125078  0.49333429  0.50927845    -0.82400
Zr349      Zr  0.49720748  0.51225735  0.55919033     2.26400
Zr350      Zr  0.01231695  0.47833174  0.97012889     2.06300
Zr351      Zr  0.41093093  0.47835222  0.56741866     2.10000
Zr352      Zr  0.49598001  0.41391726  0.54223886     1.78800
O353        O  0.36610706  0.02356626  0.58782420    -0.91200
O354        O  0.04767600  0.37945737  0.51775924    -0.39000
O355        O  0.47264130  0.46293500  0.57448603    -0.75700
O356        O  0.02217887  0.46219517  0.52808169    -0.94400
O357        O  0.48783452  0.02767432  0.50094862    -0.87700
O358        O  0.43553941  0.02802236  0.55290666    -0.90500
C359        C  0.45086788  0.35961369  0.00076137     1.03200
C360        C  0.34675313  0.45164479  0.51807634     1.16200
C361        C  0.46925562  0.45207039  0.90083933     1.07000
O362        O  0.05957602  0.43668282  0.94754839    -0.92700
O363        O  0.06665620  0.49579011  0.98916234    -0.88400
O364        O  0.05742467  0.01184954  0.54378070    -0.81600
C365        C  0.07652219  0.50707472  0.51730794     1.13600
O366        O  0.37470816  0.05117288  0.95838059    -0.94600
Zr367      Zr  0.42617628  0.04241208  0.49464915     1.88900
O368        O  0.48985132  0.07386834  0.55294995    -0.71300
O369        O  0.02562493  0.02217945  0.93073269    -0.50500
O370        O  0.43981822  0.06969059  0.94168574    -0.95200
O371        O  0.37595870  0.07953526  0.51880683    -0.52400
O372        O  0.45006730  0.09190208  0.51198258    -0.71800
C373        C  0.47302676  0.09685424  0.53378599     1.00500
O374        O  0.03482383  0.52219422  0.60681657    -0.60600
O375        O  0.39249452  0.43862938  0.60798305    -0.55400
O376        O  0.48248304  0.00777150  0.61764369    -0.92100
O377        O  0.43097311  0.48820682  0.62429211    -0.90500
O378        O  0.48246994  0.38332616  0.59268375    -0.90900
O379        O  0.04186876  0.40340446  0.58507403    -0.89700
C380        C  0.45809633  0.99855669  0.63542319     1.19400
H381        H  0.42235461  0.41044069  0.54151897     0.35300
H382        H  0.04673258  0.45543903  0.53250340     0.46200
H383        H  0.42716484  0.04673145  0.56789140     0.39700
H384        H  0.44436212  0.50169848  0.93889463     0.36200
H385        H  0.04979705  0.35724519  0.52951902     0.28000
H386        H  0.04078701  0.00962944  0.91320178     0.33900
H387        H  0.43079695  0.09418602  0.94486258     0.39800
H388        H  0.49411616  0.35959052  0.58906018     0.34300
H389        H  0.36919792  0.44977222  0.61581678     0.33200
H390        H  0.35140191  0.01191170  0.60287503     0.34800
H391        H  0.37711050  0.10230620  0.50925901     0.33800
H392        H  0.05181305  0.42473272  0.58624891     0.37800
H393        H  0.05465750  0.50308679  0.60667822     0.30500
H394        H  0.39137876  0.41463785  0.92346494     0.34800
H395        H  0.37212421  0.07486990  0.94993665     0.37600
H396        H  0.38781242  0.41899248  0.59438202     0.30200
H397        H  0.04507504  0.54260636  0.60078191     0.43100
H398        H  0.04861605  0.41658818  0.94197503     0.33200
H399        H  0.04200210  0.37574291  0.99512481     0.40800
H400        H  0.38107475  0.08179700  0.54317030     0.32600
H401        H  0.50367481  0.02798477  0.91609049     0.32700
H402        H  0.37824520  0.45414955  0.92132468     0.33000
Zr403      Zr  0.41986420  0.27437647  0.80268280     2.17500
O404        O  0.37718625  0.32356829  0.81913053    -0.49400
O405        O  0.42379897  0.26928430  0.86473142    -0.72600
O406        O  0.35981158  0.26215100  0.80490215    -0.79400
O407        O  0.48669490  0.33242967  0.77576483    -0.81100
O408        O  0.35855379  0.20873249  0.78509491    -0.76800
O409        O  0.43198586  0.33266257  0.79676971    -0.88400
O410        O  0.46483679  0.22416521  0.87892558    -0.74400
O411        O  0.43191947  0.21530364  0.81549971    -0.83800
O412        O  0.48067301  0.26215942  0.81550866    -0.83500
O413        O  0.40423760  0.24650605  0.75191820    -0.70300
O414        O  0.45040425  0.28736799  0.75264826    -0.82400
Zr415      Zr  0.00744668  0.18513918  0.72810363     2.26400
Zr416      Zr  0.41704330  0.18699813  0.76526273     2.06300
Zr417      Zr  0.01164961  0.27328027  0.76580434     2.10000
Zr418      Zr  0.49290118  0.20295054  0.82726861     1.78800
O419        O  0.03312857  0.31011299  0.72425567    -0.91200
O420        O  0.47975852  0.15330057  0.85765730    -0.39000
O421        O  0.02384458  0.21364866  0.77784600    -0.75700
O422        O  0.47795774  0.17294959  0.77876245    -0.94400
O423        O  0.44695619  0.19916650  0.71468639    -0.87700
O424        O  0.49695569  0.24478183  0.71503216    -0.90500
C425        C  0.44091643  0.24891970  0.88637082     1.03200
C426        C  0.45726907  0.34757594  0.78689056     1.16200
C427        C  0.34392514  0.23710932  0.79771258     1.07000
O428        O  0.39706749  0.14853547  0.80606894    -0.92700
O429        O  0.43855091  0.12849976  0.74989247    -0.88400
O430        O  0.49377032  0.12720593  0.72982806    -0.81600
C431        C  0.46771748  0.11281882  0.73869111     1.13600
O432        O  0.38875262  0.30623991  0.69536351    -0.94600
Zr433      Zr  0.43627168  0.25865614  0.70277266     1.88900
O434        O  0.00464342  0.19068597  0.66614617    -0.71300
O435        O  0.37894810  0.17308839  0.72014840    -0.50500
O436        O  0.38888916  0.24093367  0.67035404    -0.95200
O437        O  0.45471730  0.30680114  0.67365214    -0.52400
O438        O  0.46242952  0.23499899  0.65080494    -0.71800
C439        C  0.48721543  0.21082001  0.64372099     1.00500
O440        O  0.05033802  0.13597615  0.71194194    -0.60600
O441        O  0.04983801  0.28862834  0.81027282    -0.55400
O442        O  0.06811502  0.19511183  0.73182422    -0.92100
O443        O  0.07044704  0.24905254  0.74958113    -0.90500
O444        O  0.04032912  0.22280444  0.85675207    -0.90900
O445        O  0.04160363  0.15680018  0.83689181    -0.89700
C446        C  0.08464897  0.21968129  0.73903222     1.19400
H447        H  0.48635471  0.27561867  0.83443016     0.35300
H448        H  0.48418719  0.14960103  0.78582966     0.46200
H449        H  0.01201678  0.24970230  0.69702250     0.39700
H450        H  0.37999391  0.25329925  0.74604016     0.36200
H451        H  0.48859946  0.15561763  0.88091879     0.28000
H452        H  0.36552240  0.15660770  0.73052973     0.33900
H453        H  0.39086185  0.25042239  0.64737951     0.39800
H454        H  0.03855145  0.21541785  0.88053165     0.34300
H455        H  0.06701228  0.30023114  0.79829158     0.33200
H456        H  0.04851435  0.32296927  0.73724811     0.34800
H457        H  0.47773611  0.29782119  0.66365298     0.33800
H458        H  0.04048775  0.14063194  0.81802763     0.37800
H459        H  0.06434476  0.14383271  0.69346766     0.30500
H460        H  0.36561476  0.31656089  0.83973723     0.34800
H461        H  0.38662963  0.31008099  0.67061752     0.37600
H462        H  0.03542185  0.30693470  0.82332525     0.30200
H463        H  0.06655667  0.13146051  0.73139533     0.43100
H464        H  0.41867822  0.13526587  0.81553513     0.33200
H465        H  0.45405140  0.15738745  0.86013299     0.40800
H466        H  0.46001892  0.32208622  0.69204046     0.32600
H467        H  0.36164154  0.19398062  0.71694571     0.32700
H468        H  0.35898935  0.32597222  0.80133624     0.33000
Zr469      Zr  0.25020889  0.25963431  0.97541820     2.17500
O470        O  0.29508364  0.26481713  0.93316663    -0.49400
O471        O  0.24342131  0.32142314  0.98021693    -0.72600
O472        O  0.22994509  0.26354599  0.91722290    -0.79400
O473        O  0.32072969  0.24087483  0.54368260    -0.81100
O474        O  0.18096893  0.23951317  0.91109836    -0.76800
O475        O  0.31056994  0.25925953  0.98929539    -0.88400
O476        O  0.20461857  0.33960226  0.52219654    -0.74400
O477        O  0.18883386  0.27523308  0.98211421    -0.83800
O478        O  0.24306489  0.27456537  0.53384172    -0.83500
O479        O  0.22688104  0.20939439  0.95990477    -0.70300
O480        O  0.27514456  0.21026870  0.50668889    -0.82400
Zr481      Zr  0.17959424  0.19184948  0.55738708     2.26400
Zr482      Zr  0.16491318  0.22488096  0.96806542     2.06300
Zr483      Zr  0.26647090  0.22458861  0.56500538     2.10000
Zr484      Zr  0.18168311  0.29015728  0.54106452     1.78800
O485        O  0.30925175  0.17627726  0.58295232    -0.91200
O486        O  0.13150386  0.32739444  0.51732794    -0.39000
O487        O  0.20491889  0.24065078  0.57251328    -0.75700
O488        O  0.15481982  0.24222961  0.52655635    -0.94400
O489        O  0.18811851  0.17653155  0.49961996    -0.87700
O490        O  0.24105535  0.17522884  0.55108782    -0.90500
C491        C  0.22701073  0.34428981  0.99979289     1.03200
C492        C  0.33021446  0.25280623  0.51552056     1.16200
C493        C  0.20624103  0.25315650  0.89940015     1.07000
O494        O  0.11791282  0.26805141  0.94761233    -0.92700
O495        O  0.11047082  0.20753455  0.98714591    -0.88400
O496        O  0.11914398  0.19198640  0.54244269    -0.81600
C497        C  0.09988215  0.19820800  0.51621332     1.13600
O498        O  0.30274247  0.15503908  0.95661606    -0.94600
Zr499      Zr  0.24957222  0.16139986  0.49255671     1.88900
O500        O  0.18745216  0.13009233  0.55244061    -0.71300
O501        O  0.15084675  0.18008443  0.93103611    -0.50500
O502        O  0.24005625  0.13283465  0.93933584    -0.95200
O503        O  0.29705773  0.12133923  0.51738385    -0.52400
O504        O  0.22335794  0.11286057  0.50821696    -0.71800
C505        C  0.20228544  0.10753958  0.53168700     1.00500
O506        O  0.14436141  0.17711005  0.60474980    -0.60600
O507        O  0.28761500  0.26212234  0.60615671    -0.55400
O508        O  0.19329165  0.19900079  0.61646261    -0.92100
O509        O  0.24562933  0.21716633  0.62219103    -0.90500
O510        O  0.19610553  0.31784377  0.59300183    -0.90900
O511        O  0.13355578  0.30038312  0.58130842    -0.89700
C512        C  0.21780346  0.20812083  0.63415151     1.19400
H513        H  0.25557582  0.29272276  0.54006430     0.35300
H514        H  0.13035993  0.24934463  0.53122012     0.46200
H515        H  0.24947517  0.15626909  0.56573817     0.39700
H516        H  0.23264329  0.20292452  0.93678148     0.36200
H517        H  0.13271594  0.35013421  0.52696177     0.28000
H518        H  0.13385285  0.19195690  0.91461057     0.33900
H519        H  0.25008530  0.10858221  0.94272938     0.39800
H520        H  0.18349303  0.34146022  0.59124634     0.34300
H521        H  0.31064800  0.24982589  0.61339392     0.33200
H522        H  0.32450790  0.17072483  0.56295631     0.34800
H523        H  0.30106558  0.10205025  0.50129100     0.33800
H524        H  0.13045972  0.27747301  0.58923645     0.37800
H525        H  0.12448508  0.19603261  0.60678990     0.30500
H526        H  0.28695531  0.28602362  0.92044786     0.34800
H527        H  0.30777123  0.13086138  0.94965895     0.37600
H528        H  0.29297185  0.28177043  0.59294959     0.30200
H529        H  0.13388199  0.15732835  0.59712899     0.43100
H530        H  0.10462286  0.27632326  0.96821121     0.33200
H531        H  0.14096728  0.33348470  0.99298300     0.40800
H532        H  0.28700493  0.11185347  0.53759803     0.32600
H533        H  0.17231146  0.17282758  0.91761436     0.32700
H534        H  0.29473614  0.24607164  0.91668972     0.33000
Zr535      Zr  0.25733882  0.43267599  0.80427363     2.17500
O536        O  0.29917667  0.38308006  0.82127854    -0.49400
O537        O  0.25365227  0.43738209  0.86627129    -0.72600
O538        O  0.31744212  0.44489733  0.80603282    -0.79400
O539        O  0.18983785  0.37492676  0.77713796    -0.81100
O540        O  0.31849749  0.49869304  0.78708557    -0.76800
O541        O  0.24476426  0.37453811  0.79766005    -0.88400
O542        O  0.21390919  0.48346482  0.88056295    -0.74400
O543        O  0.24583753  0.49189611  0.81688717    -0.83800
O544        O  0.19653988  0.44532477  0.81717891    -0.83500
O545        O  0.27316768  0.46034322  0.75349680    -0.70300
O546        O  0.22675872  0.41958135  0.75435775    -0.82400
Zr547      Zr  0.16890316  0.02200433  0.72864506     2.26400
Zr548      Zr  0.25936014  0.02020001  0.76580943     2.06300
Zr549      Zr  0.16592973  0.43381330  0.76678483     2.10000
Zr550      Zr  0.18502218  0.50453591  0.82912101     1.78800
O551        O  0.14376368  0.39827804  0.72442992    -0.91200
O552        O  0.19872298  0.05305178  0.85943429    -0.39000
O553        O  0.15353818  0.49330264  0.77935915    -0.75700
O554        O  0.19866817  0.03435669  0.77967199    -0.94400
O555        O  0.22932667  0.00806915  0.71539812    -0.87700
O556        O  0.18035641  0.46234718  0.71665187    -0.90500
C557        C  0.23717937  0.45810871  0.88795744     1.03200
C558        C  0.21935379  0.35970623  0.78792479     1.16200
C559        C  0.33320054  0.47014981  0.79924702     1.07000
O560        O  0.27912289  0.06079638  0.80442476    -0.92700
O561        O  0.23818800  0.07868251  0.75032047    -0.88400
O562        O  0.18314702  0.07998730  0.72981284    -0.81600
C563        C  0.20921278  0.09433137  0.73866089     1.13600
O564        O  0.28883209  0.40122861  0.69514446    -0.94600
Zr565      Zr  0.24104872  0.44813947  0.70448594     1.88900
O566        O  0.17174980  0.01608563  0.66656233    -0.71300
O567        O  0.29655400  0.03147991  0.71891879    -0.50500
O568        O  0.28896150  0.46583875  0.67289785    -0.95200
O569        O  0.22297897  0.39938904  0.67611469    -0.52400
O570        O  0.21464593  0.47147072  0.65261311    -0.71800
C571        C  0.18897064  0.99609550  0.64465610     1.00500
O572        O  0.12656437  0.07153394  0.71230866    -0.60600
O573        O  0.12982610  0.41676788  0.81211982    -0.55400
O574        O  0.10824517  0.01234696  0.73199393    -0.92100
O575        O  0.10691164  0.45803839  0.75111709    -0.90500
O576        O  0.13958962  0.48288092  0.86098425    -0.90900
O577        O  0.13495180  0.04996682  0.83670370    -0.89700
C578        C  0.09265873  0.48719895  0.74005610     1.19400
H579        H  0.19064933  0.43188474  0.83604605     0.35300
H580        H  0.19257959  0.05779696  0.78648885     0.46200
H581        H  0.16604612  0.45710341  0.69797957     0.39700
H582        H  0.29740012  0.45351426  0.74757449     0.36200
H583        H  0.19005004  0.05051670  0.88273714     0.28000
H584        H  0.31194610  0.04650429  0.72862217     0.33900
H585        H  0.27947934  0.48868409  0.66396656     0.39800
H586        H  0.14026548  0.49306973  0.88379891     0.34300
H587        H  0.11286246  0.43746415  0.81734525     0.33200
H588        H  0.12693419  0.38661323  0.73681808     0.34800
H589        H  0.19922937  0.40771717  0.66739747     0.33800
H590        H  0.13081784  0.06071321  0.81412328     0.37800
H591        H  0.11262205  0.06383210  0.69370201     0.30500
H592        H  0.31027427  0.38990861  0.84222384     0.34800
H593        H  0.29102897  0.39874929  0.67023463     0.37600
H594        H  0.11573231  0.40123271  0.80115072     0.30200
H595        H  0.11021550  0.07609770  0.73164625     0.43100
H596        H  0.27988540  0.04974905  0.82693910     0.33200
H597        H  0.22444517  0.04847947  0.86160742     0.40800
H598        H  0.21935069  0.38357809  0.69464691     0.32600
H599        H  0.31214009  0.00959893  0.71495710     0.32700
H600        H  0.31781654  0.38071086  0.80395171     0.33000
C601        C  0.12202529  0.21362557  0.73590350    -0.11300
C602        C  0.15350138  0.20791935  0.73424260    -0.12900
C603        C  0.20383935  0.20617298  0.69888379    -0.11300
C604        C  0.21261260  0.20860599  0.66991194    -0.12900
C605        C  0.20034612  0.16152264  0.73717265    -0.11300
C606        C  0.20499217  0.13080416  0.73749428    -0.12900
C607        C  0.19412779  0.07390220  0.53444938    -0.11300
C608        C  0.18654833  0.04585474  0.53677275    -0.12900
C609        C  0.18157991  0.00179301  0.60918136    -0.11300
C610        C  0.17855728  0.00546461  0.57884271    -0.12900
C611        C  0.11208017  0.01035112  0.52110453    -0.11300
C612        C  0.14161914  0.01189569  0.52954196    -0.12900
C613        C  0.99781854  0.19947064  0.57858923    -0.11300
C614        C  0.49478842  0.20482828  0.60829069    -0.12900
C615        C  0.06410818  0.19420739  0.52045162    -0.11300
C616        C  0.03478215  0.19205277  0.52922085    -0.12900
C617        C  0.48143513  0.13048488  0.53609301    -0.11300
C618        C  0.48961675  0.15837312  0.53757805    -0.12900
C619        C  0.47662700  0.04557576  0.73837881    -0.11300
C620        C  0.47215147  0.07630307  0.73823815    -0.12900
C621        C  0.05524642  0.49316458  0.73695225    -0.11300
C622        C  0.02299617  0.99937588  0.73469844    -0.12900
C623        C  0.47218100  0.00123014  0.70011727    -0.11300
C624        C  0.46310781  0.99889280  0.67121118    -0.12900
C625        C  0.22173167  0.46592592  0.50869577    -0.11300
C626        C  0.20160453  0.48628219  0.52462324    -0.12900
C627        C  0.23454660  0.37821636  0.99689726    -0.11300
C628        C  0.24093672  0.40678286  0.99501290    -0.12900
C629        C  0.31114138  0.44740139  0.51359323    -0.11300
C630        C  0.28214959  0.44491746  0.00408766    -0.12900
C631        C  0.24682500  0.44872762  0.95379907    -0.11300
C632        C  0.24433425  0.45253392  0.92345550    -0.12900
C633        C  0.45509586  0.23770350  0.50671412    -0.11300
C634        C  0.47499655  0.21723351  0.52276371    -0.12900
C635        C  0.43071656  0.25681603  0.95228476    -0.11300
C636        C  0.43351663  0.25393898  0.92187821    -0.12900
C637        C  0.39459774  0.26050421  0.00204371    -0.11300
C638        C  0.36581910  0.25733719  0.51116357    -0.12900
C639        C  0.43718786  0.29726293  0.99459758    -0.11300
C640        C  0.44369811  0.32570703  0.99706495    -0.12900
C641        C  0.20840505  0.21748042  0.75793940    -0.11300
C642        C  0.22159484  0.23513402  0.77744580    -0.12900
C643        C  0.27505353  0.24705596  0.80295723    -0.11300
C644        C  0.30662659  0.24182269  0.80219919    -0.12900
C645        C  0.22162773  0.25403111  0.83499387    -0.11300
C646        C  0.21105854  0.25414219  0.86363441    -0.12900
C647        C  0.22441515  0.32327150  0.78886216    -0.11300
C648        C  0.22912628  0.29275066  0.79184060    -0.12900
C649        C  0.46871234  0.49047680  0.75960645    -0.12900
C650        C  0.45559249  0.47254372  0.77891448    -0.12900
C651        C  0.44768020  0.41452553  0.79175640    -0.11300
C652        C  0.45223435  0.38404036  0.78822496    -0.12900
C653        C  0.46480991  0.45148249  0.86499046    -0.11300
C654        C  0.45505334  0.45212958  0.83605152    -0.12900
C655        C  0.40203278  0.46020242  0.80382998    -0.11300
C656        C  0.37048076  0.46548304  0.80346315    -0.12900
C657        C  0.43986439  0.94999799  0.30196401    -0.00600
C658        C  0.23646123  0.75718839  0.30131764    -0.00600
C659        C  0.42945613  0.76230055  0.48890800    -0.00600
C660        C  0.24717106  0.94146800  0.48957520    -0.00600
C661        C  0.48472345  0.50937094  0.23402733    -0.00600
C662        C  0.99948188  0.69210744  0.04236620    -0.00600
C663        C  0.17740442  0.51148012  0.04319013    -0.00600
C664        C  0.19096400  0.69852569  0.23262928    -0.00600
Zr665      Zr  0.42639513  0.94370898  0.47687367     2.17500
O666        O  0.38188689  0.93333626  0.43612025    -0.49400
O667        O  0.43447695  0.88186775  0.48079278    -0.72600
O668        O  0.44441267  0.94329137  0.41798144    -0.79400
O669        O  0.35648153  0.96161442  0.04597124    -0.81100
O670        O  0.49574280  0.96336030  0.41256447    -0.76800
O671        O  0.36575920  0.94561571  0.49066635    -0.88400
O672        O  0.47356618  0.86386721  0.02279615    -0.74400
O673        O  0.48773843  0.92770007  0.48367195    -0.83800
O674        O  0.43440924  0.92866780  0.03510277    -0.83500
O675        O  0.44989338  0.99396512  0.46181205    -0.70300
O676        O  0.40113042  0.99345540  0.00842702    -0.82400
Zr677      Zr  0.49713421  0.01209552  0.05843046     2.26400
Zr678      Zr  0.01170323  0.97865285  0.46943612     2.06300
Zr679      Zr  0.41075098  0.97835837  0.06659578     2.10000
Zr680      Zr  0.49597542  0.91370407  0.04157929     1.78800
O681        O  0.36775592  0.52641720  0.08771498    -0.91200
O682        O  0.04523509  0.87851356  0.01382149    -0.39000
O683        O  0.47246681  0.96285294  0.07358191    -0.75700
O684        O  0.02229048  0.96193275  0.02730137    -0.94400
O685        O  0.48839451  0.52806431  0.00114332    -0.87700
O686        O  0.43609270  0.52907728  0.05313490    -0.90500
C687        C  0.45153732  0.85876062  0.49964282     1.03200
C688        C  0.34632228  0.95208948  0.01703446     1.16200
C689        C  0.46918870  0.95208937  0.40044118     1.07000
O690        O  0.05917080  0.93631192  0.44839823    -0.92700
O691        O  0.06574572  0.99690535  0.48844639    -0.88400
O692        O  0.05765906  0.51269644  0.04390776    -0.81600
C693        C  0.07634867  0.00721221  0.01623613     1.13600
O694        O  0.37528918  0.55072286  0.45833643    -0.94600
Zr695      Zr  0.42685851  0.54323519  0.99480914     1.88900
O696        O  0.49128046  0.57405616  0.05335911    -0.71300
O697        O  0.02384570  0.52533771  0.43417991    -0.50500
O698        O  0.43601417  0.57303625  0.44393611    -0.95200
O699        O  0.37736507  0.58098493  0.01924541    -0.52400
O700        O  0.45176170  0.59211677  0.01218638    -0.71800
C701        C  0.47464597  0.59701396  0.03407637     1.00500
O702        O  0.03438466  0.02174726  0.10654935    -0.60600
O703        O  0.39294990  0.93888558  0.10778830    -0.55400
O704        O  0.48289888  0.50917957  0.11790546    -0.92100
O705        O  0.43077053  0.98829599  0.12349704    -0.90500
O706        O  0.48409499  0.88523593  0.09386621    -0.90900
O707        O  0.04391254  0.90350065  0.08167321    -0.89700
C708        C  0.45905761  0.49902004  0.13570352     1.19400
H709        H  0.42217459  0.91031202  0.04130995     0.35300
H710        H  0.04687215  0.95506870  0.03169521     0.46200
H711        H  0.42777649  0.54793438  0.06794431     0.39700
H712        H  0.44418119  0.00108404  0.43889143     0.36200
H713        H  0.05135155  0.85860162  0.02889441     0.28000
H714        H  0.04391579  0.51522713  0.42003767     0.33900
H715        H  0.42615493  0.59713747  0.44839037     0.39800
H716        H  0.49592898  0.86146433  0.09105420     0.34300
H717        H  0.37069487  0.95094962  0.11720881     0.33200
H718        H  0.35381907  0.53448739  0.06745150     0.34800
H719        H  0.37392388  0.60120432  0.00427998     0.33800
H720        H  0.03883608  0.92233288  0.09822711     0.37800
H721        H  0.05418373  0.00263530  0.10652559     0.30500
H722        H  0.39216307  0.91313470  0.42279564     0.34800
H723        H  0.36627327  0.57543425  0.45828671     0.37600
H724        H  0.38621019  0.92003960  0.09432022     0.30200
H725        H  0.04472968  0.04213472  0.10065520     0.43100
H726        H  0.07101192  0.92620792  0.46906572     0.33200
H727        H  0.03719525  0.87121297  0.49239945     0.40800
H728        H  0.38606422  0.58939816  0.04066791     0.32600
H729        H  0.50135529  0.53436358  0.42295734     0.32700
H730        H  0.37901796  0.95262852  0.41995220     0.33000
Zr731      Zr  0.41972356  0.77394424  0.30309260     2.17500
O732        O  0.37733955  0.82298718  0.32045916    -0.49400
O733        O  0.42349984  0.76842053  0.36494504    -0.72600
O734        O  0.35954321  0.76191360  0.30517026    -0.79400
O735        O  0.48620076  0.83216867  0.27549801    -0.81100
O736        O  0.35808592  0.70862365  0.28514446    -0.76800
O737        O  0.43198766  0.83222767  0.29763159    -0.88400
O738        O  0.46540792  0.72398851  0.37895774    -0.74400
O739        O  0.43171425  0.71474161  0.31546949    -0.83800
O740        O  0.48070474  0.76147364  0.31556977    -0.83500
O741        O  0.40354398  0.74672336  0.25220478    -0.70300
O742        O  0.44980029  0.78736143  0.25295243    -0.82400
Zr743      Zr  0.00644881  0.68555704  0.22774257     2.26400
Zr744      Zr  0.41643259  0.68713825  0.26496662     2.06300
Zr745      Zr  0.01054850  0.77361566  0.26493329     2.10000
Zr746      Zr  0.49274908  0.70221354  0.32711912     1.78800
O747        O  0.03084035  0.80995838  0.22219614    -0.91200
O748        O  0.47933367  0.65384426  0.35954156    -0.39000
O749        O  0.02294677  0.71419911  0.27733642    -0.75700
O750        O  0.47739061  0.67275082  0.27839914    -0.94400
O751        O  0.44625323  0.69946226  0.21444625    -0.87700
O752        O  0.49604268  0.74504401  0.21483294    -0.90500
C753        C  0.44104616  0.74831719  0.38647059     1.03200
C754        C  0.45704697  0.84721393  0.28729179     1.16200
C755        C  0.34354570  0.73697118  0.29785187     1.07000
O756        O  0.39606839  0.64760645  0.30433275    -0.92700
O757        O  0.43753605  0.62896861  0.24896013    -0.88400
O758        O  0.49278791  0.62761695  0.22894414    -0.81600
C759        C  0.46665532  0.61332464  0.23772627     1.13600
O760        O  0.38789933  0.80648298  0.19481148    -0.94600
Zr761      Zr  0.43530678  0.75899759  0.20299710     1.88900
O762        O  0.00379197  0.69106140  0.16588339    -0.71300
O763        O  0.37844476  0.67399894  0.21940301    -0.50500
O764        O  0.38771550  0.74048239  0.17151621    -0.95200
O765        O  0.45297180  0.80770825  0.17423506    -0.52400
O766        O  0.46149489  0.73605465  0.15086696    -0.71800
C767        C  0.48586532  0.71155148  0.14364670     1.00500
O768        O  0.04890926  0.63538890  0.21361041    -0.60600
O769        O  0.04897869  0.78910726  0.30911828    -0.55400
O770        O  0.06709721  0.69588624  0.22949143    -0.92100
O771        O  0.06965162  0.74886427  0.24988248    -0.90500
O772        O  0.03829373  0.72368691  0.35842487    -0.90900
O773        O  0.04230047  0.65805463  0.33315669    -0.89700
C774        C  0.08376456  0.71999774  0.23797782     1.19400
H775        H  0.48674084  0.77484560  0.33443391     0.35300
H776        H  0.48354908  0.64932050  0.28525836     0.46200
H777        H  0.01035765  0.75011625  0.19620715     0.39700
H778        H  0.37927529  0.75363071  0.24645170     0.36200
H779        H  0.49015915  0.65579682  0.38204429     0.28000
H780        H  0.36728052  0.65514669  0.22835832     0.33900
H781        H  0.39781051  0.71818595  0.16164558     0.39800
H782        H  0.03797226  0.71321126  0.38115408     0.34300
H783        H  0.06502600  0.80204732  0.29719325     0.33200
H784        H  0.05008883  0.81933686  0.23325964     0.34800
H785        H  0.47386015  0.79834645  0.16080474     0.33800
H786        H  0.04794044  0.65011809  0.30972646     0.37800
H787        H  0.06300282  0.64228350  0.19471684     0.30500
H788        H  0.36534914  0.81556017  0.34062442     0.34800
H789        H  0.38406002  0.80803491  0.17003306     0.37600
H790        H  0.03421713  0.80632684  0.32315744     0.30200
H791        H  0.06507249  0.63175062  0.23316282     0.43100
H792        H  0.41703910  0.63793360  0.31744888     0.33200
H793        H  0.45392618  0.65910276  0.36388064     0.40800
H794        H  0.46206780  0.82091023  0.19247043     0.32600
H795        H  0.35935284  0.69370205  0.21843049     0.32700
H796        H  0.35940779  0.82612280  0.30242601     0.33000
Zr797      Zr  0.25050819  0.75942713  0.47555389     2.17500
O798        O  0.29562705  0.76517253  0.43371969    -0.49400
O799        O  0.24387298  0.82118046  0.48010545    -0.72600
O800        O  0.23097588  0.76261021  0.41716234    -0.79400
O801        O  0.32071001  0.74042159  0.04478985    -0.81100
O802        O  0.18043076  0.74117271  0.41130513    -0.76800
O803        O  0.31096871  0.75826856  0.48958242    -0.88400
O804        O  0.20417364  0.83876517  0.02157992    -0.74400
O805        O  0.18915163  0.77564155  0.48220392    -0.83800
O806        O  0.24324615  0.77353504  0.03408727    -0.83500
O807        O  0.22650604  0.70956772  0.45996492    -0.70300
O808        O  0.27591784  0.70925534  0.00739856    -0.82400
Zr809      Zr  0.18030061  0.69052914  0.05776372     2.26400
Zr810      Zr  0.16460203  0.72560653  0.46814645     2.06300
Zr811      Zr  0.26665198  0.72381128  0.06566982     2.10000
Zr812      Zr  0.18190444  0.78910362  0.04105689     1.78800
O813        O  0.30932849  0.67606573  0.08516643    -0.91200
O814        O  0.13109659  0.82429720  0.01604375    -0.39000
O815        O  0.20507926  0.73971347  0.07285988    -0.75700
O816        O  0.15534232  0.74087063  0.02694089    -0.94400
O817        O  0.18914036  0.67502539  0.00005560    -0.87700
O818        O  0.24180989  0.67416124  0.05175665    -0.90500
C819        C  0.22616793  0.84430575  0.49850468     1.03200
C820        C  0.33053827  0.75063838  0.01603928     1.16200
C821        C  0.20645642  0.75356718  0.39946201     1.07000
O822        O  0.11624976  0.76770091  0.44838257    -0.92700
O823        O  0.11032031  0.70785531  0.48715119    -0.88400
O824        O  0.11973054  0.69072672  0.04321593    -0.81600
C825        C  0.10037863  0.69719892  0.01707227     1.13600
O826        O  0.30048838  0.65630073  0.45455205    -0.94600
Zr827      Zr  0.25072626  0.66019099  0.99330683     1.88900
O828        O  0.18815406  0.62890287  0.05256147    -0.71300
O829        O  0.15111765  0.68126026  0.43022563    -0.50500
O830        O  0.23768719  0.63120226  0.44102761    -0.95200
O831        O  0.29960130  0.62089918  0.01684364    -0.52400
O832        O  0.22659384  0.61091527  0.01050858    -0.71800
C833        C  0.20439771  0.60597145  0.03304849     1.00500
O834        O  0.14581790  0.67460110  0.10517861    -0.60600
O835        O  0.28753740  0.76174329  0.10660110    -0.55400
O836        O  0.19391579  0.69714799  0.11686962    -0.92100
O837        O  0.24533610  0.71701289  0.12267819    -0.90500
O838        O  0.19632858  0.81978914  0.09111077    -0.90900
O839        O  0.13530729  0.79901667  0.08296888    -0.89700
C840        C  0.21791599  0.70715891  0.13456600     1.19400
H841        H  0.25566079  0.79177211  0.04022630     0.35300
H842        H  0.13090340  0.74800627  0.03165547     0.46200
H843        H  0.25023113  0.65528782  0.06655076     0.39700
H844        H  0.23206796  0.70296493  0.43685851     0.36200
H845        H  0.12729695  0.84520939  0.02999819     0.28000
H846        H  0.13484259  0.69334680  0.41328475     0.33900
H847        H  0.24978893  0.60752682  0.44404542     0.39800
H848        H  0.18316956  0.84310863  0.08847515     0.34300
H849        H  0.31037584  0.74941564  0.11436737     0.33200
H850        H  0.33040025  0.68609184  0.09055821     0.34800
H851        H  0.30087030  0.60002813  0.00292917     0.33800
H852        H  0.13088855  0.77604975  0.08934149     0.37800
H853        H  0.12586424  0.69333549  0.10774864     0.30500
H854        H  0.28685233  0.78557055  0.41999397     0.34800
H855        H  0.30613681  0.63201620  0.44820707     0.37600
H856        H  0.29328077  0.78114850  0.09326612     0.30200
H857        H  0.13538681  0.65486206  0.09732033     0.43100
H858        H  0.10654119  0.75680594  0.42878813     0.33200
H859        H  0.13664651  0.82985837  0.49379374     0.40800
H860        H  0.29172366  0.61416758  0.03929364     0.32600
H861        H  0.17297574  0.67374082  0.41751027     0.32700
H862        H  0.29653916  0.74558105  0.41807146     0.33000
Zr863      Zr  0.25695127  0.93306756  0.30321962     2.17500
O864        O  0.29878744  0.88316851  0.31941218    -0.49400
O865        O  0.25349264  0.93811246  0.36529874    -0.72600
O866        O  0.31710380  0.94475979  0.30507746    -0.79400
O867        O  0.18988598  0.87532643  0.27705625    -0.81100
O868        O  0.31828804  0.99848793  0.28606412    -0.76800
O869        O  0.24504090  0.87482127  0.29692062    -0.88400
O870        O  0.21131278  0.98209173  0.37992538    -0.74400
O871        O  0.24541330  0.99220434  0.31592957    -0.83800
O872        O  0.19617138  0.94560688  0.31625723    -0.83500
O873        O  0.27267734  0.96078468  0.25238571    -0.70300
O874        O  0.22647404  0.92019538  0.25312527    -0.82400
Zr875      Zr  0.16927653  0.52197682  0.22950714     2.26400
Zr876      Zr  0.26001820  0.52054481  0.26635634     2.06300
Zr877      Zr  0.16576211  0.93406243  0.26574517     2.10000
Zr878      Zr  0.18453959  0.00487816  0.32811896     1.78800
O879        O  0.14650268  0.89812960  0.22205071    -0.91200
O880        O  0.19947518  0.55356015  0.36056007    -0.39000
O881        O  0.15328561  0.99358444  0.27833305    -0.75700
O882        O  0.19928059  0.53472870  0.28027685    -0.94400
O883        O  0.22976316  0.50824950  0.21609298    -0.87700
O884        O  0.17985380  0.96297030  0.21575872    -0.90500
C885        C  0.23576702  0.95772858  0.38715621     1.03200
C886        C  0.21951779  0.86004768  0.28751076     1.16200
C887        C  0.33292891  0.96991646  0.29823309     1.07000
O888        O  0.27975441  0.56000407  0.30624862    -0.92700
O889        O  0.23861341  0.57890604  0.25039050    -0.88400
O890        O  0.18371852  0.57983754  0.22960398    -0.81600
C891        C  0.20963228  0.59435810  0.23851895     1.13600
O892        O  0.28875899  0.90254937  0.19485302    -0.94600
Zr893      Zr  0.24043675  0.94912901  0.20324543     1.88900
O894        O  0.17124241  0.51544894  0.16747364    -0.71300
O895        O  0.29779129  0.53337665  0.22047837    -0.50500
O896        O  0.28663785  0.96914442  0.17100732    -0.95200
O897        O  0.22262115  0.90129040  0.17305029    -0.52400
O898        O  0.21342918  0.97229443  0.15158304    -0.71800
C899        C  0.18888053  0.49568249  0.14564041     1.00500
O900        O  0.12653610  0.57186478  0.21508128    -0.60600
O901        O  0.12815398  0.91587192  0.30917781    -0.55400
O902        O  0.10865246  0.51198166  0.23269165    -0.92100
O903        O  0.10669634  0.95819368  0.25016912    -0.90500
O904        O  0.13571976  0.98545912  0.35662497    -0.90900
O905        O  0.13519600  0.55068431  0.33625720    -0.89700
C906        C  0.09236398  0.98738295  0.23923026     1.19400
H907        H  0.19015779  0.93213479  0.33507093     0.35300
H908        H  0.19315665  0.55824336  0.28686304     0.46200
H909        H  0.16550788  0.95767171  0.19715053     0.39700
H910        H  0.29687604  0.95391100  0.24644959     0.36200
H911        H  0.18863844  0.55226972  0.38313617     0.28000
H912        H  0.30932274  0.55197275  0.22940113     0.33900
H913        H  0.28560473  0.95901210  0.14820080     0.39800
H914        H  0.14167621  0.98518257  0.38098284     0.34300
H915        H  0.11259700  0.93693023  0.31613700     0.33200
H916        H  0.13171673  0.88395640  0.23409552     0.34800
H917        H  0.19957426  0.91024812  0.16300268     0.33800
H918        H  0.12733476  0.55685025  0.31286846     0.37800
H919        H  0.11236376  0.56471514  0.19638267     0.30500
H920        H  0.31076227  0.88995534  0.33984105     0.34800
H921        H  0.29058345  0.89892567  0.17006169     0.37600
H922        H  0.11271278  0.90259417  0.29678798     0.30200
H923        H  0.11045831  0.57575582  0.23470929     0.43100
H924        H  0.27848255  0.54923434  0.32872463     0.33200
H925        H  0.22487830  0.54781979  0.36485549     0.40800
H926        H  0.21735267  0.88567590  0.19109628     0.32600
H927        H  0.31663042  0.51344798  0.21929064     0.32700
H928        H  0.31678752  0.88041706  0.30142633     0.33000
C929        C  0.12121495  0.71386532  0.23501612    -0.11300
C930        C  0.15274537  0.70799380  0.23387613    -0.12900
C931        C  0.20348418  0.70597994  0.19914464    -0.11300
C932        C  0.21250512  0.70797838  0.17023275    -0.12900
C933        C  0.19985571  0.66158960  0.23737388    -0.11300
C934        C  0.20503172  0.63085784  0.23743223    -0.12900
C935        C  0.19617720  0.57242831  0.03594234    -0.11300
C936        C  0.18779833  0.54473647  0.03818929    -0.12900
C937        C  0.18133270  0.50095779  0.11016494    -0.11300
C938        C  0.17852101  0.50444749  0.07980207    -0.12900
C939        C  0.11254553  0.51039576  0.02161010    -0.11300
C940        C  0.14202847  0.51185153  0.03024417    -0.12900
C941        C  0.99763114  0.70047704  0.07859563    -0.11300
C942        C  0.49346666  0.70577155  0.10828093    -0.12900
C943        C  0.06452265  0.69358200  0.02132591    -0.11300
C944        C  0.03499523  0.69195147  0.02977090    -0.12900
C945        C  0.48291083  0.63064365  0.03645014    -0.11300
C946        C  0.49042380  0.65877765  0.03786442    -0.12900
C947        C  0.47575008  0.54625063  0.23835856    -0.11300
C948        C  0.47104963  0.57691683  0.23756462    -0.12900
C949        C  0.05497980  0.99328173  0.23611405    -0.11300
C950        C  0.02326526  0.49954298  0.23574032    -0.12900
C951        C  0.47278209  0.50163874  0.20039613    -0.11300
C952        C  0.46410727  0.49925439  0.17141923    -0.12900
C953        C  0.22128438  0.96516257  0.00775964    -0.11300
C954        C  0.20123997  0.98566242  0.02368727    -0.12900
C955        C  0.23333770  0.87831927  0.49556861    -0.11300
C956        C  0.23967731  0.90691308  0.49409513    -0.12900
C957        C  0.31073573  0.94752076  0.01263095    -0.11300
C958        C  0.28184477  0.94403315  0.50302013    -0.12900
C959        C  0.24595528  0.94860203  0.45299206    -0.11300
C960        C  0.24310900  0.95219176  0.42264298    -0.12900
C961        C  0.45487356  0.73781003  0.00672889    -0.11300
C962        C  0.47496658  0.71745821  0.02264315    -0.12900
C963        C  0.43051429  0.75606886  0.45225239    -0.11300
C964        C  0.43350430  0.75316236  0.42190382    -0.12900
C965        C  0.39480016  0.75977466  0.50227453    -0.11300
C966        C  0.36589561  0.75563870  0.01174623    -0.12900
C967        C  0.43746847  0.79649744  0.49429065    -0.11300
C968        C  0.44429866  0.82485120  0.49632631    -0.12900
C969        C  0.20757800  0.71774738  0.25806663    -0.11300
C970        C  0.22091702  0.73546450  0.27742250    -0.12900
C971        C  0.27464726  0.74712721  0.30277000    -0.11300
C972        C  0.30622601  0.74178980  0.30218358    -0.12900
C973        C  0.22131814  0.75464151  0.33490229    -0.11300
C974        C  0.21098876  0.75474095  0.36364025    -0.12900
C975        C  0.22453816  0.82360260  0.28847219    -0.11300
C976        C  0.22904279  0.79307917  0.29149268    -0.12900
C977        C  0.46832823  0.98981776  0.25881176    -0.12900
C978        C  0.45525113  0.97196394  0.27822032    -0.12900
C979        C  0.44751831  0.91414826  0.29201242    -0.11300
C980        C  0.45204447  0.88364832  0.28872803    -0.12900
C981        C  0.46457054  0.95192714  0.36459151    -0.11300
C982        C  0.45466091  0.95249879  0.33569635    -0.12900
C983        C  0.40172019  0.95984437  0.30322345    -0.11300
C984        C  0.37018241  0.96513867  0.30255431    -0.12900
C985        C  0.43897662  0.95036554  0.80242807    -0.00600
C986        C  0.23626647  0.75663567  0.80119588    -0.00600
C987        C  0.42900389  0.76255489  0.98911594    -0.00600
C988        C  0.24748700  0.94094327  0.98965550    -0.00600
C989        C  0.48546553  0.50910437  0.73377466    -0.00600
C990        C  0.99948364  0.69227577  0.54181733    -0.00600
C991        C  0.17744354  0.51207058  0.54301582    -0.00600
C992        C  0.19085493  0.69822524  0.73206369    -0.00600
Zr993      Zr  0.42632925  0.94381827  0.97704656     2.17500
O994        O  0.38244542  0.93083027  0.93681379    -0.49400
O995        O  0.43451013  0.88201880  0.98129666    -0.72600
O996        O  0.44404272  0.94339086  0.91816346    -0.79400
O997        O  0.35604923  0.96278385  0.54530340    -0.81100
O998        O  0.49591979  0.96242935  0.91254802    -0.76800
O999        O  0.36549301  0.94669550  0.99068837    -0.88400
O1000       O  0.47368023  0.86380877  0.52219687    -0.74400
O1001       O  0.48777045  0.92814142  0.98322126    -0.83800
O1002       O  0.43405756  0.92866807  0.53497236    -0.83500
O1003       O  0.44969118  0.99412869  0.96147137    -0.70300
O1004       O  0.40111473  0.99316278  0.50849929    -0.82400
Zr1005     Zr  0.49714752  0.01215027  0.55852946     2.26400
Zr1006     Zr  0.01168407  0.97851954  0.96925982     2.06300
Zr1007     Zr  0.41063897  0.97828347  0.56669898     2.10000
Zr1008     Zr  0.49538272  0.91353615  0.54222899     1.78800
O1009       O  0.36608331  0.52430094  0.58662278    -0.91200
O1010       O  0.04586315  0.87737188  0.51478076    -0.39000
O1011       O  0.47235253  0.96303121  0.57384617    -0.75700
O1012       O  0.02221274  0.96196520  0.52742241    -0.94400
O1013       O  0.48754873  0.52837036  0.50176118    -0.87700
O1014       O  0.43554604  0.52826184  0.55392964    -0.90500
C1015       C  0.45137386  0.85888926  0.00023351     1.03200
C1016       C  0.34625169  0.95215891  0.51665439     1.16200
C1017       C  0.46912865  0.95146558  0.90057596     1.07000
O1018       O  0.05889755  0.93553691  0.94875254    -0.92700
O1019       O  0.06591772  0.99667941  0.98783516    -0.88400
O1020       O  0.05720888  0.51377171  0.54343382    -0.81600
C1021       C  0.07622818  0.00668479  0.51713890     1.13600
O1022       O  0.37825134  0.54736692  0.95501894    -0.94600
Zr1023     Zr  0.42592521  0.54293128  0.49581043     1.88900
O1024       O  0.49006390  0.57387957  0.55458673    -0.71300
O1025       O  0.02569965  0.52347842  0.93319506    -0.50500
O1026       O  0.43861793  0.57511670  0.94457658    -0.95200
O1027       O  0.37769804  0.58055094  0.52249503    -0.52400
O1028       O  0.45176305  0.59155567  0.51232690    -0.71800
C1029       C  0.47407909  0.59664332  0.53472870     1.00500
O1030       O  0.03248813  0.02653721  0.60594526    -0.60600
O1031       O  0.39374563  0.93643507  0.60584418    -0.55400
O1032       O  0.48278819  0.50734945  0.61824716    -0.92100
O1033       O  0.43073114  0.98843925  0.62361347    -0.90500
O1034       O  0.47838681  0.88682348  0.59377020    -0.90900
O1035       O  0.04601601  0.90247971  0.57977696    -0.89700
C1036       C  0.45835350  0.49827454  0.63603591     1.19400
H1037       H  0.42178754  0.91029707  0.54094423     0.35300
H1038       H  0.04675966  0.95502792  0.53180495     0.46200
H1039       H  0.42707315  0.54687566  0.56899590     0.39700
H1040       H  0.44388603  0.00110207  0.93850273     0.36200
H1041       H  0.04893457  0.85588141  0.52784660     0.28000
H1042       H  0.04107195  0.51161794  0.91544670     0.33900
H1043       H  0.42644847  0.59861702  0.94862890     0.39800
H1044       H  0.48455319  0.86206379  0.58964900     0.34300
H1045       H  0.37205469  0.94804197  0.61662402     0.33200
H1046       H  0.36155527  0.51857062  0.61041870     0.34800
H1047       H  0.38784419  0.59093341  0.54212597     0.33800
H1048       H  0.04544988  0.92408313  0.59231288     0.37800
H1049       H  0.05233364  0.00762233  0.60797638     0.30500
H1050       H  0.39361835  0.91100736  0.92340153     0.34800
H1051       H  0.37082439  0.57190628  0.95057526     0.37600
H1052       H  0.38612219  0.91859829  0.59149441     0.30200
H1053       H  0.04296505  0.04634968  0.59831320     0.43100
H1054       H  0.04729235  0.91657302  0.94086260     0.33200
H1055       H  0.03535279  0.86922237  0.99335903     0.40800
H1056       H  0.36288758  0.56511635  0.53252699     0.32600
H1057       H  0.50278494  0.53076811  0.91955140     0.32700
H1058       H  0.37838233  0.95007753  0.92065026     0.33000
Zr1059     Zr  0.41934142  0.77396647  0.80337554     2.17500
O1060       O  0.37669699  0.82263089  0.82116528    -0.49400
O1061       O  0.42342087  0.76833123  0.86522622    -0.72600
O1062       O  0.35925608  0.76164069  0.80483838    -0.79400
O1063       O  0.48466144  0.83298696  0.77574270    -0.81100
O1064       O  0.35839765  0.70803145  0.78542554    -0.76800
O1065       O  0.43045543  0.83252855  0.79768250    -0.88400
O1066       O  0.46421529  0.72290891  0.87910583    -0.74400
O1067       O  0.43183294  0.71481111  0.81571823    -0.83800
O1068       O  0.48031163  0.76216591  0.81595844    -0.83500
O1069       O  0.40380723  0.74657717  0.75240406    -0.70300
O1070       O  0.44947231  0.78783392  0.75344103    -0.82400
Zr1071     Zr  0.00629096  0.68522249  0.72717355     2.26400
Zr1072     Zr  0.41690294  0.68700419  0.76514990     2.06300
Zr1073     Zr  0.01053076  0.77318614  0.76428230     2.10000
Zr1074     Zr  0.49292608  0.70286049  0.82728506     1.78800
O1075       O  0.02778552  0.80910848  0.71945674    -0.91200
O1076       O  0.48234317  0.65169439  0.85671306    -0.39000
O1077       O  0.02300494  0.71373659  0.77681646    -0.75700
O1078       O  0.47788292  0.67320898  0.77852179    -0.94400
O1079       O  0.44639753  0.69990786  0.71456861    -0.87700
O1080       O  0.49616751  0.74590690  0.71517119    -0.90500
C1081       C  0.44037141  0.74770673  0.88669726     1.03200
C1082       C  0.45530481  0.84777261  0.78734604     1.16200
C1083       C  0.34351866  0.73647535  0.79769954     1.07000
O1084       O  0.39668132  0.64746367  0.80462492    -0.92700
O1085       O  0.43911961  0.62880663  0.74909702    -0.88400
O1086       O  0.49416742  0.62803989  0.72879020    -0.81600
C1087       C  0.46833309  0.61339791  0.73769855     1.13600
O1088       O  0.38807723  0.80729274  0.69570472    -0.94600
Zr1089     Zr  0.43538613  0.75958036  0.70331869     1.88900
O1090       O  0.00314377  0.69126848  0.66532686    -0.71300
O1091       O  0.37802766  0.67476334  0.72000449    -0.50500
O1092       O  0.38625479  0.74426467  0.67178127    -0.95200
O1093       O  0.45445735  0.80809489  0.67542339    -0.52400
O1094       O  0.46074787  0.73608896  0.65094872    -0.71800
C1095       C  0.48560090  0.71201766  0.64371393     1.00500
O1096       O  0.04877922  0.63594443  0.71048987    -0.60600
O1097       O  0.05100177  0.79040127  0.80559006    -0.55400
O1098       O  0.06701620  0.69521520  0.72924674    -0.92100
O1099       O  0.06950852  0.74855396  0.74859428    -0.90500
O1100       O  0.03884782  0.72351480  0.85734730    -0.90900
O1101       O  0.04186059  0.65674702  0.83323882    -0.89700
C1102       C  0.08364804  0.71952109  0.73712239     1.19400
H1103       H  0.48602391  0.77553591  0.83494546     0.35300
H1104       H  0.48431243  0.64978083  0.78529073     0.46200
H1105       H  0.00993396  0.74974025  0.69563789     0.39700
H1106       H  0.37956446  0.75331951  0.74657175     0.36200
H1107       H  0.49056318  0.65427003  0.88016690     0.28000
H1108       H  0.36135182  0.66199922  0.73122405     0.33900
H1109       H  0.39517010  0.72182940  0.66165748     0.39800
H1110       H  0.03400417  0.72005922  0.88161235     0.34300
H1111       H  0.06496581  0.80472746  0.79261409     0.33200
H1112       H  0.05197962  0.81197591  0.72506561     0.34800
H1113       H  0.47516293  0.79845027  0.66188043     0.33800
H1114       H  0.05107849  0.65237960  0.80997158     0.37800
H1115       H  0.06231662  0.64365279  0.69154947     0.30500
H1116       H  0.36464351  0.81486280  0.84111175     0.34800
H1117       H  0.38600959  0.81099459  0.67093730     0.37600
H1118       H  0.03649402  0.80651650  0.82091125     0.30200
H1119       H  0.06548857  0.63153688  0.72954202     0.43100
H1120       H  0.40167649  0.65595998  0.82737575     0.33200
H1121       H  0.45664900  0.65434135  0.85876265     0.40800
H1122       H  0.46393426  0.82072908  0.69389416     0.32600
H1123       H  0.36394631  0.69707257  0.71437562     0.32700
H1124       H  0.35885282  0.82596505  0.80304545     0.33000
Zr1125     Zr  0.25063884  0.75875414  0.97587931     2.17500
O1126       O  0.29534510  0.76790345  0.93481068    -0.49400
O1127       O  0.24359502  0.82060778  0.98039748    -0.72600
O1128       O  0.23201053  0.76049639  0.91717966    -0.79400
O1129       O  0.32072183  0.74049018  0.54402790    -0.81100
O1130       O  0.18085493  0.74010859  0.91169634    -0.76800
O1131       O  0.31124443  0.75647995  0.98982886    -0.88400
O1132       O  0.20325576  0.83924116  0.52029210    -0.74400
O1133       O  0.18927378  0.77487489  0.98256071    -0.83800
O1134       O  0.24306196  0.77402994  0.53382760    -0.83500
O1135       O  0.22685803  0.70863458  0.96042091    -0.70300
O1136       O  0.27566620  0.70973265  0.50675712    -0.82400
Zr1137     Zr  0.17991658  0.69103646  0.55692453     2.26400
Zr1138     Zr  0.16495289  0.72463194  0.96867166     2.06300
Zr1139     Zr  0.26652926  0.72409868  0.56506209     2.10000
Zr1140     Zr  0.18167392  0.78954695  0.54075314     1.78800
O1141       O  0.30985702  0.67676040  0.58423003    -0.91200
O1142       O  0.12943737  0.82304893  0.51650401    -0.39000
O1143       O  0.20496213  0.74001672  0.57230568    -0.75700
O1144       O  0.15491831  0.74150086  0.52646878    -0.94400
O1145       O  0.18872635  0.67577008  0.49920618    -0.87700
O1146       O  0.24143529  0.67463538  0.55092472    -0.90500
C1147       C  0.22657064  0.84376666  0.99924456     1.03200
C1148       C  0.33045267  0.75149490  0.51555481     1.16200
C1149       C  0.20717122  0.75188292  0.89961612     1.07000
O1150       O  0.11677976  0.76513727  0.94597766    -0.92700
O1151       O  0.11037946  0.70808193  0.98864024    -0.88400
O1152       O  0.11932041  0.69167176  0.54208579    -0.81600
C1153       C  0.10014677  0.69753939  0.51574952     1.13600
O1154       O  0.30122484  0.65637225  0.95589422    -0.94600
Zr1155     Zr  0.25030612  0.66084238  0.49244274     1.88900
O1156       O  0.18757658  0.62951443  0.55140275    -0.71300
O1157       O  0.15170311  0.67881339  0.93253425    -0.50500
O1158       O  0.23870483  0.62989475  0.94212604    -0.95200
O1159       O  0.29940166  0.62200370  0.51626476    -0.52400
O1160       O  0.22617705  0.61153848  0.50948814    -0.71800
C1161       C  0.20387544  0.60660719  0.53192335     1.00500
O1162       O  0.14543067  0.67424729  0.60391645    -0.60600
O1163       O  0.28736245  0.76191295  0.60613308    -0.55400
O1164       O  0.19334038  0.69739881  0.61605489    -0.92100
O1165       O  0.24524008  0.71635682  0.62195756    -0.90500
O1166       O  0.19514884  0.82195278  0.58999398    -0.90900
O1167       O  0.13668564  0.79884046  0.58428143    -0.89700
C1168       C  0.21764651  0.70678219  0.63379869     1.19400
H1169       H  0.25540805  0.79231952  0.53998422     0.35300
H1170       H  0.13046273  0.74863742  0.53121325     0.46200
H1171       H  0.24983285  0.65572886  0.56565920     0.39700
H1172       H  0.23246623  0.70177540  0.93738452     0.36200
H1173       H  0.12581695  0.84443209  0.52973434     0.28000
H1174       H  0.14140601  0.69020702  0.91175491     0.33900
H1175       H  0.25099943  0.60633141  0.94540694     0.39800
H1176       H  0.18342287  0.84555672  0.58565002     0.34300
H1177       H  0.31148417  0.75102190  0.61164541     0.33200
H1178       H  0.31506215  0.68263412  0.60786283     0.34800
H1179       H  0.30085951  0.60103980  0.50251192     0.33800
H1180       H  0.13664816  0.77609903  0.59440396     0.37800
H1181       H  0.12547496  0.69292130  0.60672656     0.30500
H1182       H  0.28549102  0.78821084  0.92141928     0.34800
H1183       H  0.30751071  0.63206111  0.94985308     0.37600
H1184       H  0.29016851  0.78262714  0.59327860     0.30200
H1185       H  0.13500202  0.65465686  0.59563874     0.43100
H1186       H  0.10845250  0.75349108  0.92611102     0.33200
H1187       H  0.13930606  0.83176477  0.99394948     0.40800
H1188       H  0.29158527  0.61534073  0.53878918     0.32600
H1189       H  0.17476032  0.66663102  0.92528636     0.32700
H1190       H  0.29760365  0.74854393  0.91875153     0.33000
Zr1191     Zr  0.25669606  0.93272523  0.80326972     2.17500
O1192       O  0.29934883  0.88271368  0.81739800    -0.49400
O1193       O  0.25407877  0.93752200  0.86529991    -0.72600
O1194       O  0.31660865  0.94538758  0.80547712    -0.79400
O1195       O  0.18944858  0.87505762  0.77680028    -0.81100
O1196       O  0.31742654  0.99933506  0.78685430    -0.76800
O1197       O  0.24409732  0.87457817  0.79806011    -0.88400
O1198       O  0.21200026  0.98162634  0.87989450    -0.74400
O1199       O  0.24489779  0.99179358  0.81613091    -0.83800
O1200       O  0.19585952  0.94516271  0.81644875    -0.83500
O1201       O  0.27221472  0.96065283  0.75257693    -0.70300
O1202       O  0.22584584  0.91979323  0.75343865    -0.82400
Zr1203     Zr  0.16986824  0.52162711  0.72938007     2.26400
Zr1204     Zr  0.26038919  0.52000655  0.76630509     2.06300
Zr1205     Zr  0.16504082  0.93393759  0.76611652     2.10000
Zr1206     Zr  0.18410565  0.00437749  0.82841442     1.78800
O1207       O  0.14145807  0.89694441  0.72616002    -0.91200
O1208       O  0.19745863  0.55504188  0.85850599    -0.39000
O1209       O  0.15278892  0.99338184  0.77853009    -0.75700
O1210       O  0.19965427  0.53419169  0.78030388    -0.94400
O1211       O  0.23032185  0.50769828  0.71599392    -0.87700
O1212       O  0.17922586  0.96265659  0.71593224    -0.90500
C1213       C  0.23649494  0.95726007  0.88713981     1.03200
C1214       C  0.21877342  0.85978942  0.78807772     1.16200
C1215       C  0.33220505  0.97081879  0.79900015     1.07000
O1216       O  0.28438156  0.55988573  0.80261550    -0.92700
O1217       O  0.23827309  0.57882879  0.75240550    -0.88400
O1218       O  0.18408120  0.57956281  0.73002891    -0.81600
C1219       C  0.20961004  0.59420795  0.73978961     1.13600
O1220       O  0.28818493  0.90225394  0.69385787    -0.94600
Zr1221     Zr  0.23988479  0.94852728  0.70361910     1.88900
O1222       O  0.17288698  0.51585485  0.66736946    -0.71300
O1223       O  0.29576842  0.53138726  0.71799461    -0.50500
O1224       O  0.28644342  0.96624166  0.66997791    -0.95200
O1225       O  0.22162630  0.89913311  0.67668546    -0.52400
O1226       O  0.21287436  0.97117687  0.65183179    -0.71800
C1227       C  0.19044321  0.49616065  0.64545637     1.00500
O1228       O  0.12760563  0.57124131  0.71320851    -0.60600
O1229       O  0.12817451  0.91975317  0.81217010    -0.55400
O1230       O  0.10917346  0.51165507  0.73237393    -0.92100
O1231       O  0.10625072  0.95827887  0.74951225    -0.90500
O1232       O  0.13651269  0.98539614  0.85934670    -0.90900
O1233       O  0.13575275  0.54958102  0.83915609    -0.89700
C1234       C  0.09187808  0.98765909  0.73908287     1.19400
H1235       H  0.19005011  0.93167476  0.83531282     0.35300
H1236       H  0.19332695  0.55759443  0.78712967     0.46200
H1237       H  0.16484909  0.95733143  0.69734196     0.39700
H1238       H  0.29648435  0.95392065  0.74670758     0.36200
H1239       H  0.19308491  0.55093281  0.88274609     0.28000
H1240       H  0.30393879  0.55300627  0.72368612     0.33900
H1241       H  0.27629788  0.98863384  0.66038311     0.39800
H1242       H  0.13959983  0.99233148  0.88307078     0.34300
H1243       H  0.11188155  0.94109523  0.81676673     0.33200
H1244       H  0.12722154  0.88371894  0.74013735     0.34800
H1245       H  0.19871565  0.90773286  0.66626496     0.33800
H1246       H  0.12270344  0.55172482  0.81753718     0.37800
H1247       H  0.11348978  0.56355976  0.69472982     0.30500
H1248       H  0.31124886  0.88883355  0.83814498     0.34800
H1249       H  0.28959177  0.89920239  0.66895632     0.37600
H1250       H  0.11338568  0.90451088  0.80180232     0.30200
H1251       H  0.11141880  0.57588461  0.73264619     0.43100
H1252       H  0.27796622  0.55400477  0.82587539     0.33200
H1253       H  0.22307326  0.55359186  0.85688910     0.40800
H1254       H  0.21611419  0.88465408  0.69567748     0.32600
H1255       H  0.31696991  0.51394681  0.71935587     0.32700
H1256       H  0.31726360  0.88108279  0.79936727     0.33000
C1257       C  0.12108587  0.71343931  0.73402245    -0.11300
C1258       C  0.15262224  0.70765028  0.73298455    -0.12900
C1259       C  0.20355046  0.70514389  0.69846837    -0.11300
C1260       C  0.21243610  0.70717046  0.66950506    -0.12900
C1261       C  0.19972516  0.66140734  0.73760051    -0.11300
C1262       C  0.20495040  0.63069504  0.73846043    -0.12900
C1263       C  0.19568548  0.57308502  0.53485023    -0.11300
C1264       C  0.18746559  0.54537025  0.53743089    -0.12900
C1265       C  0.18281822  0.50181976  0.61001547    -0.11300
C1266       C  0.17923109  0.50542682  0.57971620    -0.12900
C1267       C  0.11241628  0.51068262  0.52156557    -0.11300
C1268       C  0.14192690  0.51204771  0.53035496    -0.12900
C1269       C  0.99750297  0.70091185  0.57804726    -0.11300
C1270       C  0.49314700  0.70602881  0.60830214    -0.12900
C1271       C  0.06428928  0.69394658  0.52006489    -0.11300
C1272       C  0.03488442  0.69234143  0.52896164    -0.12900
C1273       C  0.48255843  0.63020260  0.53697947    -0.11300
C1274       C  0.49029342  0.65825985  0.53824082    -0.12900
C1275       C  0.47760658  0.54616142  0.73800714    -0.11300
C1276       C  0.47314172  0.57688109  0.73735093    -0.12900
C1277       C  0.05448855  0.99363099  0.73605607    -0.11300
C1278       C  0.02373573  0.49886611  0.73554175    -0.12900
C1279       C  0.47246311  0.50148384  0.70052328    -0.11300
C1280       C  0.46327870  0.49883106  0.67174512    -0.12900
C1281       C  0.22128314  0.96588152  0.50782313    -0.11300
C1282       C  0.20135838  0.98649470  0.52374437    -0.12900
C1283       C  0.23388600  0.87772197  0.99603748    -0.11300
C1284       C  0.24021542  0.90630680  0.99422202    -0.12900
C1285       C  0.31065893  0.94767806  0.51214669    -0.11300
C1286       C  0.28198164  0.94378162  0.00339487    -0.12900
C1287       C  0.24655023  0.94807677  0.95302888    -0.11300
C1288       C  0.24389869  0.95175400  0.92265442    -0.12900
C1289       C  0.45513976  0.73731004  0.50650489    -0.11300
C1290       C  0.47504820  0.71684530  0.52249871    -0.12900
C1291       C  0.42998062  0.75607795  0.95247686    -0.11300
C1292       C  0.43289293  0.75270622  0.92215151    -0.12900
C1293       C  0.39451703  0.75975460  0.00264545    -0.11300
C1294       C  0.36598112  0.75610376  0.51125809    -0.12900
C1295       C  0.43681966  0.79683028  0.99447143    -0.11300
C1296       C  0.44383914  0.82508775  0.99684735    -0.12900
C1297       C  0.20727968  0.71781750  0.75734051    -0.11300
C1298       C  0.22060584  0.73535859  0.77690386    -0.12900
C1299       C  0.27451777  0.74660826  0.80229159    -0.11300
C1300       C  0.30612197  0.74117718  0.80173106    -0.12900
C1301       C  0.22145066  0.75331883  0.83484799    -0.11300
C1302       C  0.21148310  0.75301729  0.86371214    -0.12900
C1303       C  0.22377750  0.82330961  0.78922489    -0.11300
C1304       C  0.22856402  0.79274323  0.79207235    -0.12900
C1305       C  0.46812076  0.98966064  0.75923800    -0.12900
C1306       C  0.45477327  0.97206536  0.77871353    -0.12900
C1307       C  0.44562169  0.91464199  0.79207074    -0.11300
C1308       C  0.44989612  0.88418413  0.78865577    -0.12900
C1309       C  0.46453628  0.95104062  0.86477991    -0.11300
C1310       C  0.45433871  0.95201844  0.83599184    -0.12900
C1311       C  0.40094934  0.96101795  0.80420065    -0.11300
C1312       C  0.36940900  0.96640967  0.80363613    -0.12900
C1313       C  0.93983496  0.44992026  0.30232017    -0.00600
C1314       C  0.73670773  0.25731166  0.30072483    -0.00600
C1315       C  0.92972909  0.26230444  0.48948599    -0.00600
C1316       C  0.74772348  0.44116221  0.48980887    -0.00600
C1317       C  0.98534524  0.00873162  0.23335971    -0.00600
C1318       C  0.49923095  0.19221716  0.04190351    -0.00600
C1319       C  0.67729951  0.01214980  0.04233443    -0.00600
C1320       C  0.69157829  0.19871222  0.23148771    -0.00600
Zr1321     Zr  0.92657552  0.44384470  0.47770373     2.17500
O1322       O  0.88219090  0.43267644  0.43713946    -0.49400
O1323       O  0.93425416  0.38197608  0.48236077    -0.72600
O1324       O  0.94461249  0.44294426  0.41879992    -0.79400
O1325       O  0.85651694  0.46293242  0.04549065    -0.81100
O1326       O  0.99547228  0.46383946  0.41299380    -0.76800
O1327       O  0.86567240  0.44694731  0.49106090    -0.88400
O1328       O  0.97450294  0.36409305  0.02252833    -0.74400
O1329       O  0.98805740  0.42820041  0.48393181    -0.83800
O1330       O  0.93456518  0.42911879  0.03573422    -0.83500
O1331       O  0.94978404  0.49429643  0.46240037    -0.70300
O1332       O  0.90174059  0.49356503  0.00880406    -0.82400
Zr1333     Zr  0.99739857  0.51232068  0.05926027     2.26400
Zr1334     Zr  0.51145619  0.47911048  0.46978675     2.06300
Zr1335     Zr  0.91085930  0.47890071  0.06705342     2.10000
Zr1336     Zr  0.99596242  0.41391366  0.04283226     1.78800
O1337       O  0.86799845  0.02588570  0.08639465    -0.91200
O1338       O  0.54408454  0.37722009  0.01608358    -0.39000
O1339       O  0.97250945  0.46325594  0.07450120    -0.75700
O1340       O  0.52206427  0.46209066  0.02788444    -0.94400
O1341       O  0.98782934  0.02789952  0.00115087    -0.87700
O1342       O  0.93599728  0.02802875  0.05349982    -0.90500
C1343       C  0.95206557  0.35873062  0.50054034     1.03200
C1344       C  0.84689828  0.45164147  0.01707468     1.16200
C1345       C  0.96910480  0.45203234  0.40106436     1.07000
O1346       O  0.55869569  0.43850160  0.44566960    -0.92700
O1347       O  0.56638361  0.49531960  0.48878054    -0.88400
O1348       O  0.55750951  0.01212914  0.04329442    -0.81600
C1349       C  0.57690990  0.50623465  0.01651494     1.13600
O1350       O  0.87483992  0.04877766  0.45827978    -0.94600
Zr1351     Zr  0.92613511  0.04292150  0.99552186     1.88900
O1352       O  0.99098162  0.07347129  0.05367589    -0.71300
O1353       O  0.52491685  0.02274036  0.43203824    -0.50500
O1354       O  0.93662087  0.07220218  0.44357087    -0.95200
O1355       O  0.87824111  0.07987670  0.02359647    -0.52400
O1356       O  0.95174283  0.09162164  0.01227907    -0.71800
C1357       C  0.97451720  0.09646928  0.03432367     1.00500
O1358       O  0.53500530  0.52336442  0.10601078    -0.60600
O1359       O  0.89053952  0.43983705  0.10715822    -0.55400
O1360       O  0.98232886  0.00857964  0.11759837    -0.92100
O1361       O  0.93139174  0.48743180  0.12414356    -0.90500
O1362       O  0.98093157  0.38501055  0.09385847    -0.90900
O1363       O  0.54408759  0.40385920  0.08202545    -0.89700
C1364       C  0.95851521  0.99837199  0.13538290     1.19400
H1365       H  0.92228519  0.41077646  0.04183591     0.35300
H1366       H  0.54656742  0.45503390  0.03240370     0.46200
H1367       H  0.92788984  0.04656495  0.06872901     0.39700
H1368       H  0.94384384  0.50129901  0.43946853     0.36200
H1369       H  0.54670259  0.35584485  0.02927316     0.28000
H1370       H  0.53914605  0.01068997  0.41360081     0.33900
H1371       H  0.92555678  0.09610139  0.44737046     0.39800
H1372       H  0.98625294  0.36043199  0.08851968     0.34300
H1373       H  0.86706032  0.45125529  0.11412842     0.33200
H1374       H  0.85495544  0.01616474  0.10445596     0.34800
H1375       H  0.87279549  0.09986115  0.00853825     0.33800
H1376       H  0.54346663  0.42575006  0.09409853     0.37800
H1377       H  0.55445206  0.50390589  0.10661360     0.30500
H1378       H  0.89264881  0.41244872  0.42394806     0.34800
H1379       H  0.86830646  0.07347270  0.45396490     0.37600
H1380       H  0.88618233  0.42007453  0.09353037     0.30200
H1381       H  0.54584755  0.54324746  0.09935637     0.43100
H1382       H  0.54913485  0.41699211  0.44387556     0.33200
H1383       H  0.54043295  0.37411003  0.49445382     0.40800
H1384       H  0.88853303  0.08897815  0.04389013     0.32600
H1385       H  0.00275888  0.03051104  0.41870106     0.32700
H1386       H  0.87915249  0.45184790  0.42082632     0.33000
Zr1387     Zr  0.92060571  0.27401225  0.30336050     2.17500
O1388       O  0.87954658  0.32336270  0.32235627    -0.49400
O1389       O  0.92377167  0.26798994  0.36527444    -0.72600
O1390       O  0.86002716  0.26304526  0.30446761    -0.79400
O1391       O  0.98751575  0.33214430  0.27612248    -0.81100
O1392       O  0.85881437  0.20899770  0.28644105    -0.76800
O1393       O  0.93283611  0.33219877  0.29707555    -0.88400
O1394       O  0.96654196  0.22445383  0.37955856    -0.74400
O1395       O  0.93259016  0.21494762  0.31621492    -0.83800
O1396       O  0.98164638  0.26158686  0.31555827    -0.83500
O1397       O  0.90442352  0.24638863  0.25268696    -0.70300
O1398       O  0.95047430  0.28715557  0.25298121    -0.82400
Zr1399     Zr  0.50738762  0.18547256  0.22760211     2.26400
Zr1400     Zr  0.91711230  0.18693196  0.26600355     2.06300
Zr1401     Zr  0.51141833  0.27352075  0.26492910     2.10000
Zr1402     Zr  0.99363371  0.20237086  0.32770686     1.78800
O1403       O  0.53259750  0.31116136  0.22402924    -0.91200
O1404       O  0.97883093  0.15376926  0.35877353    -0.39000
O1405       O  0.52402484  0.21399786  0.27725579    -0.75700
O1406       O  0.97812444  0.17255000  0.27932929    -0.94400
O1407       O  0.94698488  0.19887263  0.21541495    -0.87700
O1408       O  0.99683090  0.24429771  0.21503034    -0.90500
C1409       C  0.94165934  0.24832111  0.38694585     1.03200
C1410       C  0.95806663  0.34719881  0.28726128     1.16200
C1411       C  0.84408397  0.23785532  0.29795735     1.07000
O1412       O  0.89543232  0.14735606  0.30446174    -0.92700
O1413       O  0.93848888  0.12841644  0.25067606    -0.88400
O1414       O  0.99342480  0.12717142  0.22983320    -0.81600
C1415       C  0.96744942  0.11280674  0.23891847     1.13600
O1416       O  0.88765680  0.30471830  0.19505228    -0.94600
Zr1417     Zr  0.93612927  0.25824681  0.20326638     1.88900
O1418       O  0.50456403  0.19125819  0.16571546    -0.71300
O1419       O  0.87997920  0.17565734  0.21899742    -0.50500
O1420       O  0.88985198  0.23899105  0.17043893    -0.95200
O1421       O  0.95410350  0.30693348  0.17474299    -0.52400
O1422       O  0.96273257  0.23498252  0.15139700    -0.71800
C1423       C  0.98710156  0.21042884  0.14431411     1.00500
O1424       O  0.54928835  0.13626677  0.20968853    -0.60600
O1425       O  0.54967822  0.28740588  0.31004912    -0.55400
O1426       O  0.56812863  0.19530935  0.23082512    -0.92100
O1427       O  0.57004770  0.24966796  0.24744927    -0.90500
O1428       O  0.53829437  0.22462470  0.35863143    -0.90900
O1429       O  0.54331097  0.15852997  0.33522324    -0.89700
C1430       C  0.58446894  0.22019449  0.23733195     1.19400
H1431       H  0.98772252  0.27507942  0.33430928     0.35300
H1432       H  0.98428767  0.14913913  0.28628055     0.46200
H1433       H  0.51108500  0.25019466  0.19614526     0.39700
H1434       H  0.88023045  0.25325805  0.24673093     0.36200
H1435       H  0.98787100  0.15605955  0.38199001     0.28000
H1436       H  0.87083078  0.15484509  0.22571718     0.33900
H1437       H  0.89259342  0.24741231  0.14714109     0.39800
H1438       H  0.53797883  0.21426643  0.38139652     0.34300
H1439       H  0.56980426  0.29455851  0.29822143     0.33200
H1440       H  0.54814941  0.32366037  0.23719850     0.34800
H1441       H  0.97665996  0.29800512  0.16375750     0.33800
H1442       H  0.54799814  0.14823439  0.31252203     0.37800
H1443       H  0.56287661  0.14442897  0.19104391     0.30500
H1444       H  0.86778872  0.31564933  0.34252036     0.34800
H1445       H  0.88551971  0.30801268  0.17024203     0.37600
H1446       H  0.53723756  0.30856339  0.32035282     0.30200
H1447       H  0.56599853  0.13132422  0.22866089     0.43100
H1448       H  0.89820906  0.15672101  0.32735400     0.33200
H1449       H  0.95314770  0.15858956  0.36129667     0.40800
H1450       H  0.96031486  0.32159763  0.19327520     0.32600
H1451       H  0.85947667  0.19398970  0.22006240     0.32700
H1452       H  0.86124390  0.32723838  0.30471126     0.33000
Zr1453     Zr  0.75068666  0.25895726  0.47534902     2.17500
O1454       O  0.79604340  0.26535913  0.43399973    -0.49400
O1455       O  0.74367273  0.32084245  0.47981624    -0.72600
O1456       O  0.73169530  0.26161608  0.41678249    -0.79400
O1457       O  0.81975151  0.24290399  0.04311802    -0.81100
O1458       O  0.68107033  0.24029638  0.41086795    -0.76800
O1459       O  0.81092751  0.25881784  0.48976068    -0.88400
O1460       O  0.70200996  0.33995970  0.02068090    -0.74400
O1461       O  0.68922665  0.27498348  0.48163390    -0.83800
O1462       O  0.74196316  0.27510604  0.03312165    -0.83500
O1463       O  0.72697226  0.20886285  0.45996687    -0.70300
O1464       O  0.77529303  0.21067597  0.00590382    -0.82400
Zr1465     Zr  0.67977745  0.19133344  0.05645235     2.26400
Zr1466     Zr  0.66501376  0.22469830  0.46767633     2.06300
Zr1467     Zr  0.76606709  0.22522320  0.06410500     2.10000
Zr1468     Zr  0.68035280  0.28986049  0.03987551     1.78800
O1469       O  0.80939579  0.17723904  0.08170883    -0.91200
O1470       O  0.62927551  0.32452706  0.01468762    -0.39000
O1471       O  0.70437967  0.24065140  0.07147602    -0.75700
O1472       O  0.65432402  0.24143817  0.02561497    -0.94400
O1473       O  0.68870677  0.17584031  0.99879704    -0.87700
O1474       O  0.74136334  0.17542647  0.05032178    -0.90500
C1475       C  0.72661497  0.34392036  0.49875503     1.03200
C1476       C  0.82982560  0.25280671  0.01431526     1.16200
C1477       C  0.70719303  0.25257631  0.39903817     1.07000
O1478       O  0.61644445  0.26601655  0.44707492    -0.92700
O1479       O  0.61042849  0.20734190  0.48651853    -0.88400
O1480       O  0.61931854  0.19086637  0.04158071    -0.81600
C1481       C  0.59990252  0.19719956  0.01544657     1.13600
O1482       O  0.80062780  0.15296424  0.45458232    -0.94600
Zr1483     Zr  0.75021831  0.16141300  0.99188763     1.88900
O1484       O  0.68742555  0.12976544  0.05084287    -0.71300
O1485       O  0.65294929  0.17918994  0.43054068    -0.50500
O1486       O  0.73851443  0.13164482  0.44008018    -0.95200
O1487       O  0.79814856  0.12187545  0.01669752    -0.52400
O1488       O  0.72490321  0.11231113  0.00784760    -0.71800
C1489       C  0.70309276  0.10709183  0.03070507     1.00500
O1490       O  0.64457490  0.17720919  0.10408553    -0.60600
O1491       O  0.78858429  0.26090977  0.10618916    -0.55400
O1492       O  0.69447746  0.19644891  0.11553733    -0.92100
O1493       O  0.74496989  0.21806506  0.12111375    -0.90500
O1494       O  0.69183323  0.31896998  0.09192357    -0.90900
O1495       O  0.63262130  0.29914604  0.08058341    -0.89700
C1496       C  0.71817810  0.20713324  0.13312964     1.19400
H1497       H  0.75418113  0.29341859  0.03949556     0.35300
H1498       H  0.62982044  0.24834510  0.03031031     0.46200
H1499       H  0.74992604  0.15660075  0.06507963     0.39700
H1500       H  0.73266168  0.20225233  0.43690270     0.36200
H1501       H  0.62669539  0.34638948  0.02706791     0.28000
H1502       H  0.63761664  0.19080370  0.41265674     0.33900
H1503       H  0.74799366  0.10731838  0.44374733     0.39800
H1504       H  0.71372444  0.32795154  0.08755436     0.34300
H1505       H  0.81297673  0.24985499  0.11039259     0.33200
H1506       H  0.82294638  0.17031450  0.06091142     0.34800
H1507       H  0.80151069  0.10203839  0.00126095     0.33800
H1508       H  0.63184595  0.27638932  0.09041320     0.37800
H1509       H  0.62496626  0.19636625  0.10613555     0.30500
H1510       H  0.78737203  0.28611240  0.42077562     0.34800
H1511       H  0.80686567  0.12822807  0.45033774     0.37600
H1512       H  0.79070881  0.28229858  0.09423941     0.30200
H1513       H  0.63373871  0.15757165  0.09664431     0.43100
H1514       H  0.60624247  0.27779681  0.46773319     0.33200
H1515       H  0.63805011  0.33011276  0.49222496     0.40800
H1516       H  0.78862644  0.11318623  0.03761810     0.32600
H1517       H  0.67537338  0.17112016  0.41893512     0.32700
H1518       H  0.79693263  0.24618649  0.41783759     0.33000
Zr1519     Zr  0.75681909  0.43300221  0.30336265     2.17500
O1520       O  0.79892319  0.38304455  0.31882161    -0.49400
O1521       O  0.75410298  0.43727464  0.36543595    -0.72600
O1522       O  0.81689349  0.44527477  0.30474355    -0.79400
O1523       O  0.68872661  0.37574867  0.27724401    -0.81100
O1524       O  0.81830814  0.49867651  0.28480065    -0.76800
O1525       O  0.74401991  0.37497209  0.29690006    -0.88400
O1526       O  0.71385122  0.48285992  0.38009338    -0.74400
O1527       O  0.74598873  0.49220679  0.31581249    -0.83800
O1528       O  0.69627500  0.44627229  0.31742211    -0.83500
O1529       O  0.77216204  0.46058152  0.25236167    -0.70300
O1530       O  0.72519259  0.42009028  0.25407544    -0.82400
Zr1531     Zr  0.66880532  0.02204770  0.22908106     2.26400
Zr1532     Zr  0.75990907  0.02060443  0.26518515     2.06300
Zr1533     Zr  0.66468104  0.43484478  0.26770463     2.10000
Zr1534     Zr  0.68546046  0.50561673  0.32888518     1.78800
O1535       O  0.63802454  0.39707289  0.23106155    -0.91200
O1536       O  0.69941173  0.05381890  0.36063391    -0.39000
O1537       O  0.65305408  0.49443003  0.27958216    -0.75700
O1538       O  0.69932277  0.03495033  0.27948039    -0.94400
O1539       O  0.72917826  0.00803268  0.21537418    -0.87700
O1540       O  0.67889236  0.46257416  0.21686177    -0.90500
C1541       C  0.73739498  0.45764456  0.38729826     1.03200
C1542       C  0.71837351  0.36030903  0.28753136     1.16200
C1543       C  0.83284113  0.47026084  0.29742044     1.07000
O1544       O  0.78152022  0.06145504  0.30215240    -0.92700
O1545       O  0.73804344  0.07891657  0.24896577    -0.88400
O1546       O  0.68265473  0.08011357  0.22936372    -0.81600
C1547       C  0.70883570  0.09451379  0.23769128     1.13600
O1548       O  0.78696877  0.40078761  0.19496557    -0.94600
Zr1549     Zr  0.73946393  0.44810636  0.20391388     1.88900
O1550       O  0.67152201  0.01612436  0.16696267    -0.71300
O1551       O  0.79748790  0.03018210  0.21797285    -0.50500
O1552       O  0.78677530  0.46641551  0.17184073    -0.95200
O1553       O  0.72204410  0.39900120  0.17567575    -0.52400
O1554       O  0.71260998  0.47070651  0.15209913    -0.71800
C1555       C  0.68914037  0.99641725  0.14505768     1.00500
O1556       O  0.62584228  0.07158420  0.21412700    -0.60600
O1557       O  0.62989645  0.42143955  0.31571287    -0.55400
O1558       O  0.60833792  0.01167651  0.23263237    -0.92100
O1559       O  0.60599016  0.45929035  0.25105670    -0.90500
O1560       O  0.63938229  0.48810653  0.36326044    -0.90900
O1561       O  0.63726809  0.05369866  0.33450219    -0.89700
C1562       C  0.59168983  0.48866342  0.24059409     1.19400
H1563       H  0.69064304  0.43305381  0.33655929     0.35300
H1564       H  0.69336120  0.05845152  0.28612101     0.46200
H1565       H  0.66431846  0.45725775  0.19843421     0.39700
H1566       H  0.79632239  0.45360237  0.24623446     0.36200
H1567       H  0.68836768  0.05235254  0.38309018     0.28000
H1568       H  0.80919080  0.04917678  0.22548524     0.33900
H1569       H  0.78323632  0.45955721  0.14814462     0.39800
H1570       H  0.64284212  0.49700137  0.38623857     0.34300
H1571       H  0.61245872  0.44220190  0.31921537     0.33200
H1572       H  0.64828748  0.39945532  0.20842422     0.34800
H1573       H  0.69753038  0.40648531  0.16869498     0.33800
H1574       H  0.62821935  0.05819939  0.31120955     0.37800
H1575       H  0.61160897  0.06409067  0.19566032     0.30500
H1576       H  0.81113073  0.38972751  0.33915065     0.34800
H1577       H  0.79010145  0.39877400  0.17009094     0.37600
H1578       H  0.61622560  0.40445018  0.30679602     0.30200
H1579       H  0.60987189  0.07570151  0.23380770     0.43100
H1580       H  0.76274908  0.06762199  0.31906426     0.33200
H1581       H  0.72473564  0.04785692  0.36508767     0.40800
H1582       H  0.72062258  0.38229165  0.19399699     0.32600
H1583       H  0.81622516  0.01008948  0.21786505     0.32700
H1584       H  0.81668274  0.38052530  0.30062732     0.33000
C1585       C  0.62189147  0.21435804  0.23411070    -0.11300
C1586       C  0.65341130  0.20857942  0.23275472    -0.12900
C1587       C  0.70420570  0.20579428  0.19788517    -0.11300
C1588       C  0.71305901  0.20764387  0.16887609    -0.12900
C1589       C  0.69984393  0.16175424  0.23641145    -0.11300
C1590       C  0.70444567  0.13101991  0.23658231    -0.12900
C1591       C  0.69489821  0.07348171  0.03355416    -0.11300
C1592       C  0.68691555  0.04564903  0.03643057    -0.12900
C1593       C  0.68192878  0.00215879  0.10950978    -0.11300
C1594       C  0.67896250  0.00570030  0.07912295    -0.12900
C1595       C  0.61247493  0.00969839  0.02110795    -0.11300
C1596       C  0.64189445  0.01156716  0.02975690    -0.12900
C1597       C  0.49790643  0.20044349  0.07825078    -0.11300
C1598       C  0.99474658  0.20452326  0.10894348    -0.12900
C1599       C  0.56404381  0.19352043  0.01986528    -0.11300
C1600       C  0.53459036  0.19204874  0.02875822    -0.12900
C1601       C  0.98289690  0.13006168  0.03679411    -0.11300
C1602       C  0.99053241  0.15815037  0.03828519    -0.12900
C1603       C  0.97675347  0.04563763  0.23815027    -0.11300
C1604       C  0.97189921  0.07634482  0.23815436    -0.12900
C1605       C  0.55431936  0.49466682  0.23760930    -0.11300
C1606       C  0.52322195  0.99880965  0.23478489    -0.12900
C1607       C  0.97264864  0.00133024  0.19991395    -0.11300
C1608       C  0.96354410  0.99884974  0.17108257    -0.12900
C1609       C  0.72189125  0.46592466  0.00867420    -0.11300
C1610       C  0.70178882  0.48629464  0.02458212    -0.12900
C1611       C  0.73405039  0.37789590  0.49587100    -0.11300
C1612       C  0.74043326  0.40649476  0.49430823    -0.12900
C1613       C  0.81127217  0.44728123  0.01254919    -0.11300
C1614       C  0.78215101  0.44406565  0.50366449    -0.12900
C1615       C  0.74698826  0.44824081  0.45318597    -0.11300
C1616       C  0.74460154  0.45190336  0.42280096    -0.12900
C1617       C  0.95517615  0.23748956  0.00734386    -0.11300
C1618       C  0.97514768  0.21702357  0.02337944    -0.12900
C1619       C  0.93090963  0.25605429  0.45277836    -0.11300
C1620       C  0.93393232  0.25313707  0.42240241    -0.12900
C1621       C  0.89491848  0.26002322  0.50264571    -0.11300
C1622       C  0.86550954  0.25719631  0.01012703    -0.12900
C1623       C  0.93801364  0.29641418  0.49499729    -0.11300
C1624       C  0.94491503  0.32474842  0.49722246    -0.12900
C1625       C  0.70841849  0.21779596  0.25695714    -0.11300
C1626       C  0.72160498  0.23545029  0.27654843    -0.12900
C1627       C  0.77502977  0.24800736  0.30209015    -0.11300
C1628       C  0.80664514  0.24288641  0.30177462    -0.12900
C1629       C  0.72182987  0.25407663  0.33436387    -0.11300
C1630       C  0.71173148  0.25379875  0.36318168    -0.12900
C1631       C  0.72337273  0.32383441  0.28831674    -0.11300
C1632       C  0.72840888  0.29328243  0.29124767    -0.12900
C1633       C  0.96852410  0.48998896  0.25965376    -0.12900
C1634       C  0.95548421  0.47204180  0.27897860    -0.12900
C1635       C  0.94776484  0.41414693  0.29208674    -0.11300
C1636       C  0.95281486  0.38365558  0.28862333    -0.12900
C1637       C  0.96425837  0.45161793  0.36519442    -0.11300
C1638       C  0.95426787  0.45218918  0.33629273    -0.12900
C1639       C  0.90164754  0.45984661  0.30304204    -0.11300
C1640       C  0.87010989  0.46540455  0.30189832    -0.12900
C1641       C  0.93997622  0.44977832  0.80293844    -0.00600
C1642       C  0.73683288  0.25667914  0.80072247    -0.00600
C1643       C  0.92981804  0.26261965  0.98931228    -0.00600
C1644       C  0.74754284  0.44157376  0.99027296    -0.00600
C1645       C  0.98482177  0.00871932  0.73347554    -0.00600
C1646       C  0.49944964  0.19209478  0.54165228    -0.00600
C1647       C  0.67707365  0.01093715  0.54241211    -0.00600
C1648       C  0.69160432  0.19853637  0.73148830    -0.00600
Zr1649     Zr  0.92696204  0.44390293  0.97755325     2.17500
O1650       O  0.88154505  0.43831857  0.93601138    -0.49400
O1651       O  0.93413543  0.38216972  0.98209425    -0.72600
O1652       O  0.94635517  0.44054106  0.91906507    -0.79400
O1653       O  0.85664593  0.46173970  0.54637681    -0.81100
O1654       O  0.99564767  0.46407297  0.91317558    -0.76800
O1655       O  0.86656556  0.44446854  0.99130151    -0.88400
O1656       O  0.97494491  0.36370596  0.52237614    -0.74400
O1657       O  0.98831504  0.42806222  0.98432000    -0.83800
O1658       O  0.93455117  0.42868207  0.53579268    -0.83500
O1659       O  0.95038429  0.49404932  0.96212969    -0.70300
O1660       O  0.90143625  0.49335450  0.50933660    -0.82400
Zr1661     Zr  0.99731489  0.51213055  0.55940962     2.26400
Zr1662     Zr  0.51194291  0.47840598  0.96967722     2.06300
Zr1663     Zr  0.91089545  0.47826622  0.56746792     2.10000
Zr1664     Zr  0.99608265  0.41371873  0.54235906     1.78800
O1665       O  0.86619026  0.02326554  0.58612659    -0.91200
O1666       O  0.54703041  0.37830782  0.51813031    -0.39000
O1667       O  0.97264124  0.46280062  0.57451058    -0.75700
O1668       O  0.52201369  0.46232712  0.52779992    -0.94400
O1669       O  0.98744310  0.02790939  0.50132760    -0.87700
O1670       O  0.93539679  0.02742937  0.55350415    -0.90500
C1671       C  0.95175277  0.35905512  0.00055465     1.03200
C1672       C  0.84647793  0.45235310  0.51738642     1.16200
C1673       C  0.97013822  0.45089296  0.90131959     1.07000
O1674       O  0.55898669  0.43696475  0.94653401    -0.92700
O1675       O  0.56669135  0.49525697  0.98824722    -0.88400
O1676       O  0.55720942  0.01327959  0.54264592    -0.81600
C1677       C  0.57650629  0.50641509  0.51704526     1.13600
O1678       O  0.87497732  0.04845836  0.95876021    -0.94600
Zr1679     Zr  0.92575254  0.04234534  0.49539981     1.88900
O1680       O  0.98973361  0.07342534  0.55324156    -0.71300
O1681       O  0.52415826  0.02336384  0.93133175    -0.50500
O1682       O  0.93502626  0.07443774  0.94419958    -0.95200
O1683       O  0.87806686  0.08079574  0.52205979    -0.52400
O1684       O  0.95082888  0.09140604  0.51158795    -0.71800
C1685       C  0.97343909  0.09633912  0.53372261     1.00500
O1686       O  0.53366325  0.52518630  0.60635249    -0.60600
O1687       O  0.89172545  0.43882338  0.60788880    -0.55400
O1688       O  0.98246873  0.00690923  0.61777237    -0.92100
O1689       O  0.93162666  0.48728273  0.62437567    -0.90500
O1690       O  0.98320357  0.38159794  0.59194744    -0.90900
O1691       O  0.54278657  0.40588150  0.58399405    -0.89700
C1692       C  0.95830011  0.99738991  0.63558731     1.19400
H1693       H  0.92237071  0.41023522  0.54188740     0.35300
H1694       H  0.54654175  0.45533394  0.53223884     0.46200
H1695       H  0.92695978  0.04592411  0.56870480     0.39700
H1696       H  0.94451666  0.50072354  0.93909722     0.36200
H1697       H  0.54797592  0.35602173  0.52949382     0.28000
H1698       H  0.54335785  0.01222108  0.91668501     0.33900
H1699       H  0.92357440  0.09806786  0.94876462     0.39800
H1700       H  0.95973517  0.39268564  0.59923947     0.34300
H1701       H  0.86897429  0.45068646  0.61636212     0.33200
H1702       H  0.85527955  0.03334339  0.56501861     0.34800
H1703       H  0.87457305  0.10127540  0.50750354     0.33800
H1704       H  0.54335284  0.42894032  0.59320420     0.37800
H1705       H  0.55387706  0.50652483  0.60708868     0.30500
H1706       H  0.88989721  0.41749386  0.92278712     0.34800
H1707       H  0.86738175  0.07311714  0.95514568     0.37600
H1708       H  0.88586214  0.41970810  0.59418021     0.30200
H1709       H  0.54346204  0.54563564  0.59946953     0.43100
H1710       H  0.56761866  0.42245180  0.96606842     0.33200
H1711       H  0.53523152  0.37111710  0.99373342     0.40800
H1712       H  0.88774422  0.08863841  0.54331243     0.32600
H1713       H  0.00345564  0.03068089  0.91885024     0.32700
H1714       H  0.88108647  0.45746833  0.91987810     0.33000
Zr1715     Zr  0.92001990  0.27412120  0.80292471     2.17500
O1716       O  0.87803919  0.32392414  0.81905382    -0.49400
O1717       O  0.92364478  0.26876780  0.86496392    -0.72600
O1718       O  0.85971501  0.26247484  0.80449373    -0.79400
O1719       O  0.98718216  0.33198221  0.77736246    -0.81100
O1720       O  0.85839815  0.20900275  0.78487182    -0.76800
O1721       O  0.93204089  0.33230577  0.79723307    -0.88400
O1722       O  0.96601611  0.22482287  0.87923662    -0.74400
O1723       O  0.93160390  0.21494607  0.81533001    -0.83800
O1724       O  0.98081722  0.26158183  0.81597521    -0.83500
O1725       O  0.90445141  0.24687496  0.75182279    -0.70300
O1726       O  0.95092998  0.28747829  0.75325664    -0.82400
Zr1727     Zr  0.50755960  0.18542325  0.72767105     2.26400
Zr1728     Zr  0.91662848  0.18734266  0.76461878     2.06300
Zr1729     Zr  0.51124783  0.27362088  0.76510144     2.10000
Zr1730     Zr  0.99256846  0.20230043  0.82746412     1.78800
O1731       O  0.53276446  0.31141624  0.72456081    -0.91200
O1732       O  0.97831279  0.15346576  0.85852371    -0.39000
O1733       O  0.52396414  0.21409967  0.77731898    -0.75700
O1734       O  0.97731032  0.17273604  0.77882435    -0.94400
O1735       O  0.94703784  0.19957242  0.71449308    -0.87700
O1736       O  0.99755889  0.24455732  0.71559696    -0.90500
C1737       C  0.94154335  0.24905464  0.88664077     1.03200
C1738       C  0.95755371  0.34715081  0.78798405     1.16200
C1739       C  0.84380676  0.23742693  0.79735190     1.07000
O1740       O  0.89329653  0.14745282  0.80146915    -0.92700
O1741       O  0.93778610  0.12864653  0.74996664    -0.88400
O1742       O  0.99288394  0.12717911  0.72950427    -0.81600
C1743       C  0.96680762  0.11288656  0.73851638     1.13600
O1744       O  0.88939669  0.30684336  0.69680645    -0.94600
Zr1745     Zr  0.93704156  0.25922958  0.70310261     1.88900
O1746       O  0.50521753  0.19163901  0.66571963    -0.71300
O1747       O  0.88010170  0.17725797  0.71674247    -0.50500
O1748       O  0.88942375  0.24533221  0.66834019    -0.95200
O1749       O  0.95763625  0.30737254  0.67599256    -0.52400
O1750       O  0.96329573  0.23538024  0.65125469    -0.71800
C1751       C  0.98723817  0.21040612  0.64417862     1.00500
O1752       O  0.54937666  0.13643903  0.70907489    -0.60600
O1753       O  0.54832382  0.28775337  0.81109839    -0.55400
O1754       O  0.56825146  0.19527648  0.73166893    -0.92100
O1755       O  0.57015983  0.24959308  0.74852919    -0.90500
O1756       O  0.53913574  0.22478751  0.85776376    -0.90900
O1757       O  0.54310445  0.15879142  0.83680797    -0.89700
C1758       C  0.58459386  0.22011645  0.73838078     1.19400
H1759       H  0.98662630  0.27489957  0.83495463     0.35300
H1760       H  0.98319825  0.14932952  0.78580189     0.46200
H1761       H  0.51123234  0.25014876  0.69638661     0.39700
H1762       H  0.88026526  0.25389198  0.74585524     0.36200
H1763       H  0.98394641  0.15757233  0.88248017     0.28000
H1764       H  0.86482735  0.16169713  0.72567607     0.33900
H1765       H  0.89765887  0.22200039  0.65993963     0.39800
H1766       H  0.53603198  0.21869068  0.88175302     0.34300
H1767       H  0.56739306  0.29713765  0.79974446     0.33200
H1768       H  0.55105327  0.32107292  0.73696450     0.34800
H1769       H  0.97946865  0.29767520  0.66416517     0.33800
H1770       H  0.55357447  0.15408662  0.81411151     0.37800
H1771       H  0.56378073  0.14507951  0.69137906     0.30500
H1772       H  0.86524176  0.31680131  0.83879412     0.34800
H1773       H  0.88948987  0.31343277  0.67264653     0.37600
H1774       H  0.53457677  0.30755068  0.82267585     0.30200
H1775       H  0.56535711  0.13059809  0.72847392     0.43100
H1776       H  0.89705967  0.15546107  0.82470333     0.33200
H1777       H  0.95253249  0.15623522  0.85790538     0.40800
H1778       H  0.96533955  0.32073547  0.69488433     0.32600
H1779       H  0.86428579  0.19912801  0.71337262     0.32700
H1780       H  0.86072134  0.32721907  0.80045345     0.33000
Zr1781     Zr  0.74970491  0.26033755  0.97488342     2.17500
O1782       O  0.79428627  0.26830345  0.93322328    -0.49400
O1783       O  0.74271928  0.32203440  0.98050824    -0.72600
O1784       O  0.73019447  0.26318519  0.91643278    -0.79400
O1785       O  0.82098831  0.23956538  0.54366763    -0.81100
O1786       O  0.68060846  0.24009665  0.91046422    -0.76800
O1787       O  0.81056956  0.25850665  0.98803919    -0.88400
O1788       O  0.70409632  0.33881612  0.52095598    -0.74400
O1789       O  0.68820216  0.27567704  0.98143364    -0.83800
O1790       O  0.74283011  0.27368957  0.53346845    -0.83500
O1791       O  0.72631370  0.21005557  0.95938728    -0.70300
O1792       O  0.77591882  0.20905007  0.50637971    -0.82400
Zr1793     Zr  0.67970737  0.19069842  0.55675652     2.26400
Zr1794     Zr  0.66431516  0.22524762  0.96738986     2.06300
Zr1795     Zr  0.76648774  0.22376526  0.56456211     2.10000
Zr1796     Zr  0.68135604  0.28920636  0.54008935     1.78800
O1797       O  0.80889477  0.17603249  0.58448953    -0.91200
O1798       O  0.63059776  0.32468282  0.51526970    -0.39000
O1799       O  0.70481791  0.23977942  0.57178495    -0.75700
O1800       O  0.65497264  0.24095112  0.52578594    -0.94400
O1801       O  0.68876320  0.17498859  0.49913550    -0.87700
O1802       O  0.74121961  0.17430190  0.55084759    -0.90500
C1803       C  0.72507429  0.34506094  0.99905871     1.03200
C1804       C  0.83054918  0.25142954  0.51553912     1.16200
C1805       C  0.70620643  0.25321456  0.89866874     1.07000
O1806       O  0.61703733  0.26597611  0.94355135    -0.92700
O1807       O  0.60980399  0.20817787  0.98700328    -0.88400
O1808       O  0.61912541  0.19148182  0.54157632    -0.81600
C1809       C  0.60006288  0.19724973  0.51514641     1.13600
O1810       O  0.80074728  0.15687691  0.95441017    -0.94600
Zr1811     Zr  0.75035692  0.15998919  0.49252891     1.88900
O1812       O  0.68742566  0.12890019  0.55187962    -0.71300
O1813       O  0.65190697  0.17849215  0.93207453    -0.50500
O1814       O  0.73829948  0.13261704  0.93973234    -0.95200
O1815       O  0.79856174  0.12074769  0.51742609    -0.52400
O1816       O  0.72564983  0.11088315  0.50964282    -0.71800
C1817       C  0.70356112  0.10590526  0.53230966     1.00500
O1818       O  0.64426256  0.17504156  0.60354778    -0.60600
O1819       O  0.78720421  0.26257762  0.60469069    -0.55400
O1820       O  0.69359601  0.19842470  0.61570657    -0.92100
O1821       O  0.74626968  0.21589558  0.62160586    -0.90500
O1822       O  0.69282279  0.32001329  0.59107261    -0.90900
O1823       O  0.63350923  0.29861406  0.58069604    -0.89700
C1824       C  0.71824559  0.20725810  0.63342770     1.19400
H1825       H  0.75523129  0.29193649  0.53959167     0.35300
H1826       H  0.63047158  0.24812829  0.53022239     0.46200
H1827       H  0.74948520  0.15554574  0.56580381     0.39700
H1828       H  0.73214701  0.20340416  0.93635359     0.36200
H1829       H  0.62849560  0.34653092  0.52769949     0.28000
H1830       H  0.63094647  0.18820149  0.91892879     0.33900
H1831       H  0.75088471  0.10906928  0.94221749     0.39800
H1832       H  0.71787322  0.32195181  0.58969956     0.34300
H1833       H  0.81162190  0.25232767  0.60976383     0.33200
H1834       H  0.82504976  0.17039338  0.56520492     0.34800
H1835       H  0.79957756  0.09944517  0.50425651     0.33800
H1836       H  0.63082174  0.27557218  0.58858385     0.37800
H1837       H  0.62452055  0.19404115  0.60599125     0.30500
H1838       H  0.78491286  0.28892378  0.92009165     0.34800
H1839       H  0.80683666  0.13252824  0.94842944     0.37600
H1840       H  0.78912492  0.28341138  0.59161841     0.30200
H1841       H  0.63358732  0.15556785  0.59537293     0.43100
H1842       H  0.60825834  0.28079512  0.96282224     0.33200
H1843       H  0.63677515  0.33007359  0.99166307     0.40800
H1844       H  0.79051712  0.11486112  0.54012512     0.32600
H1845       H  0.67099610  0.17486631  0.91520078     0.32700
H1846       H  0.79563920  0.24910864  0.91701908     0.33000
Zr1847     Zr  0.75687465  0.43258455  0.80420350     2.17500
O1848       O  0.79893092  0.38326678  0.82147986    -0.49400
O1849       O  0.75298411  0.43787537  0.86621271    -0.72600
O1850       O  0.81703385  0.44475239  0.80599214    -0.79400
O1851       O  0.69050094  0.37447467  0.77578882    -0.81100
O1852       O  0.81803021  0.49859243  0.78718567    -0.76800
O1853       O  0.74496284  0.37432223  0.79740033    -0.88400
O1854       O  0.71109831  0.48220490  0.88058117    -0.74400
O1855       O  0.74471316  0.49159749  0.81707049    -0.83800
O1856       O  0.69587912  0.44465442  0.81655754    -0.83500
O1857       O  0.77262117  0.46050168  0.75358792    -0.70300
O1858       O  0.72672287  0.41961705  0.75396510    -0.82400
Zr1859     Zr  0.66888118  0.02199538  0.72861628     2.26400
Zr1860     Zr  0.75992954  0.02072083  0.76556894     2.06300
Zr1861     Zr  0.66573831  0.43318611  0.76589745     2.10000
Zr1862     Zr  0.68368837  0.50379212  0.82869140     1.78800
O1863       O  0.64369498  0.39728141  0.72381960    -0.91200
O1864       O  0.70071049  0.05481217  0.85743294    -0.39000
O1865       O  0.65273003  0.49254470  0.77860697    -0.75700
O1866       O  0.69912970  0.03493142  0.77916022    -0.94400
O1867       O  0.72946169  0.00841650  0.71535296    -0.87700
O1868       O  0.68017797  0.46204373  0.71599044    -0.90500
C1869       C  0.73541508  0.45776344  0.88794212     1.03200
C1870       C  0.71986695  0.35939700  0.78704156     1.16200
C1871       C  0.83281605  0.47000020  0.79924626     1.07000
O1872       O  0.77734437  0.06239721  0.80446380    -0.92700
O1873       O  0.73835080  0.07873214  0.74822507    -0.88400
O1874       O  0.68293490  0.07995744  0.72864093    -0.81600
C1875       C  0.70916956  0.09431248  0.73687877     1.13600
O1876       O  0.78975296  0.40254773  0.69480476    -0.94600
Zr1877     Zr  0.74093709  0.44838340  0.70422585     1.88900
O1878       O  0.67073566  0.01524932  0.66662939    -0.71300
O1879       O  0.80044342  0.03218853  0.72157022    -0.50500
O1880       O  0.78770567  0.46622596  0.67100221    -0.95200
O1881       O  0.72286826  0.39880769  0.67746242    -0.52400
O1882       O  0.71404666  0.47097312  0.65228421    -0.71800
C1883       C  0.68793795  0.99517401  0.64478923     1.00500
O1884       O  0.62609578  0.07139086  0.71290977    -0.60600
O1885       O  0.62970280  0.41578883  0.81109320    -0.55400
O1886       O  0.60832518  0.01160106  0.73190384    -0.92100
O1887       O  0.60672338  0.45739811  0.74999015    -0.90500
O1888       O  0.63876580  0.48323121  0.86231807    -0.90900
O1889       O  0.63612632  0.05170261  0.83662887    -0.89700
C1890       C  0.59233369  0.48673517  0.73945640     1.19400
H1891       H  0.68995345  0.43108926  0.83532664     0.35300
H1892       H  0.69306215  0.05848446  0.78564815     0.46200
H1893       H  0.66602320  0.45663465  0.69727427     0.39700
H1894       H  0.79688441  0.45379523  0.74772094     0.36200
H1895       H  0.69285207  0.05277046  0.88107774     0.28000
H1896       H  0.81354270  0.04898613  0.73183471     0.33900
H1897       H  0.77810338  0.48935050  0.66284490     0.39800
H1898       H  0.63818508  0.49582680  0.88400863     0.34300
H1899       H  0.61405040  0.43691213  0.81770539     0.33200
H1900       H  0.62738584  0.38516599  0.73642215     0.34800
H1901       H  0.70078713  0.40756834  0.66558238     0.33800
H1902       H  0.63158430  0.06193527  0.81386288     0.37800
H1903       H  0.61228984  0.06378541  0.69414015     0.30500
H1904       H  0.81114634  0.39070994  0.84147557     0.34800
H1905       H  0.79081836  0.39893442  0.66997906     0.37600
H1906       H  0.61421818  0.40187870  0.79966680     0.30200
H1907       H  0.60970685  0.07548020  0.73225303     0.43100
H1908       H  0.78247974  0.04995268  0.82603894     0.33200
H1909       H  0.72649692  0.05014087  0.85878657     0.40800
H1910       H  0.71577329  0.38515116  0.69642403     0.32600
H1911       H  0.81773234  0.01105376  0.71976882     0.32700
H1912       H  0.81670656  0.38002485  0.80330405     0.33000
C1913       C  0.62199728  0.21423425  0.73508350    -0.11300
C1914       C  0.65347609  0.20833915  0.73324366    -0.12900
C1915       C  0.70395109  0.20617660  0.69799871    -0.11300
C1916       C  0.71292341  0.20812359  0.66907751    -0.12900
C1917       C  0.70008456  0.16153046  0.73583627    -0.11300
C1918       C  0.70482100  0.13080129  0.73570528    -0.12900
C1919       C  0.69548767  0.07220612  0.53533058    -0.11300
C1920       C  0.68743783  0.04431595  0.53754459    -0.12900
C1921       C  0.68019450  0.00040786  0.60936468    -0.11300
C1922       C  0.67757742  0.00398708  0.57901151    -0.12900
C1923       C  0.61230328  0.01003388  0.52038301    -0.11300
C1924       C  0.64185321  0.01124426  0.52901651    -0.12900
C1925       C  0.49811400  0.20018620  0.57808460    -0.11300
C1926       C  0.99452607  0.20414110  0.60877429    -0.12900
C1927       C  0.56413628  0.19375603  0.51939156    -0.11300
C1928       C  0.53474701  0.19213302  0.52839719    -0.12900
C1929       C  0.98198874  0.12985039  0.53610382    -0.11300
C1930       C  0.99005274  0.15774594  0.53778865    -0.12900
C1931       C  0.97595994  0.04564906  0.73822576    -0.11300
C1932       C  0.97116251  0.07637887  0.73805983    -0.12900
C1933       C  0.55497876  0.49269162  0.73635311    -0.11300
C1934       C  0.52300139  0.99878233  0.73506128    -0.12900
C1935       C  0.97220688  0.00106428  0.70007855    -0.11300
C1936       C  0.96320210  0.99813076  0.67128738    -0.12900
C1937       C  0.72147336  0.46543648  0.50781224    -0.11300
C1938       C  0.70147767  0.48584252  0.52389983    -0.12900
C1939       C  0.73269299  0.37890029  0.99648545    -0.11300
C1940       C  0.73970536  0.40721250  0.99490826    -0.12900
C1941       C  0.81087232  0.44787806  0.51293060    -0.11300
C1942       C  0.78235997  0.44389253  0.00349792    -0.12900
C1943       C  0.74598695  0.44880285  0.95372772    -0.11300
C1944       C  0.74284698  0.45244102  0.92341789    -0.12900
C1945       C  0.95513648  0.23715478  0.50726735    -0.11300
C1946       C  0.97496253  0.21658030  0.52324636    -0.12900
C1947       C  0.93147990  0.25665097  0.95256586    -0.11300
C1948       C  0.93429233  0.25406083  0.92214913    -0.12900
C1949       C  0.89472054  0.26036186  0.00184066    -0.11300
C1950       C  0.86603934  0.25629351  0.51141015    -0.12900
C1951       C  0.93783541  0.29674842  0.99509178    -0.11300
C1952       C  0.94458496  0.32511333  0.99734972    -0.12900
C1953       C  0.70857023  0.21731644  0.75699034    -0.11300
C1954       C  0.72173443  0.23493449  0.77655965    -0.12900
C1955       C  0.77498966  0.24696148  0.80240764    -0.11300
C1956       C  0.80654375  0.24205712  0.80178063    -0.12900
C1957       C  0.72143890  0.25397272  0.83417291    -0.11300
C1958       C  0.71096293  0.25411168  0.86286196    -0.12900
C1959       C  0.72499019  0.32300636  0.78790387    -0.11300
C1960       C  0.72935392  0.29251951  0.79093314    -0.12900
C1961       C  0.96896791  0.48944911  0.75997873    -0.12900
C1962       C  0.95567954  0.47177536  0.77943169    -0.12900
C1963       C  0.94755196  0.41404880  0.79263687    -0.11300
C1964       C  0.95242026  0.38356719  0.78928348    -0.12900
C1965       C  0.96518309  0.45063608  0.86550904    -0.11300
C1966       C  0.95489278  0.45168518  0.83671740    -0.12900
C1967       C  0.90176283  0.45984852  0.80420108    -0.11300
C1968       C  0.87017248  0.46526341  0.80351929    -0.12900
C1969       C  0.93983411  0.95031739  0.30212517    -0.00600
C1970       C  0.73617361  0.75743268  0.30131731    -0.00600
C1971       C  0.92922254  0.76234664  0.48903968    -0.00600
C1972       C  0.74774271  0.94086356  0.48978898    -0.00600
C1973       C  0.98509352  0.50892168  0.23399167    -0.00600
C1974       C  0.49946836  0.69277270  0.04189200    -0.00600
C1975       C  0.67723734  0.51194509  0.04267244    -0.00600
C1976       C  0.69124282  0.69872683  0.23219770    -0.00600
Zr1977     Zr  0.92656943  0.94363404  0.47697385     2.17500
O1978       O  0.88253011  0.93324907  0.43568345    -0.49400
O1979       O  0.93421782  0.88181728  0.48124473    -0.72600
O1980       O  0.94474827  0.94331558  0.41813153    -0.79400
O1981       O  0.85614404  0.96312115  0.04566293    -0.81100
O1982       O  0.99567709  0.96405167  0.41249396    -0.76800
O1983       O  0.86582509  0.94625817  0.49081376    -0.88400
O1984       O  0.97289559  0.86415103  0.02307154    -0.74400
O1985       O  0.98804195  0.92805184  0.48302187    -0.83800
O1986       O  0.93436395  0.92901006  0.03492823    -0.83500
O1987       O  0.94964012  0.99424008  0.46208301    -0.70300
O1988       O  0.90118938  0.99350091  0.00881804    -0.82400
Zr1989     Zr  0.99754109  0.01184759  0.05860046     2.26400
Zr1990     Zr  0.51180652  0.97795986  0.46959203     2.06300
Zr1991     Zr  0.91091322  0.97841229  0.06684486     2.10000
Zr1992     Zr  0.99586926  0.91363645  0.04134597     1.78800
O1993       O  0.86789831  0.52632562  0.08667632    -0.91200
O1994       O  0.54612068  0.87793664  0.01601627    -0.39000
O1995       O  0.97267145  0.96265958  0.07363559    -0.75700
O1996       O  0.52201345  0.96208311  0.02723397    -0.94400
O1997       O  0.98848525  0.52798326  0.00162268    -0.87700
O1998       O  0.93586863  0.52849674  0.05316063    -0.90500
C1999       C  0.95118307  0.85871632  0.50017629     1.03200
C2000       C  0.84621921  0.95267515  0.01699029     1.16200
C2001       C  0.96927920  0.95245660  0.40050336     1.07000
O2002       O  0.55972028  0.93612018  0.44852306    -0.92700
O2003       O  0.56633274  0.99511921  0.48830605    -0.88400
O2004       O  0.55784134  0.51266716  0.04284118    -0.81600
C2005       C  0.57660773  0.00607488  0.01693664     1.13600
O2006       O  0.87519231  0.55017328  0.45900167    -0.94600
Zr2007     Zr  0.92697580  0.54270820  0.99480153     1.88900
O2008       O  0.99008980  0.57393803  0.05443036    -0.71300
O2009       O  0.52370957  0.52592834  0.43451362    -0.50500
O2010       O  0.93944803  0.57064425  0.44322997    -0.95200
O2011       O  0.87745855  0.58167807  0.01764998    -0.52400
O2012       O  0.95087570  0.59184409  0.01297997    -0.71800
C2013       C  0.97345428  0.59684563  0.03512180     1.00500
O2014       O  0.53289863  0.02505581  0.10610800    -0.60600
O2015       O  0.89101997  0.93903289  0.10689400    -0.55400
O2016       O  0.98294578  0.50710578  0.11828492    -0.92100
O2017       O  0.93174988  0.98713373  0.12366520    -0.90500
O2018       O  0.98354220  0.88261542  0.09189709    -0.90900
O2019       O  0.54506280  0.90433061  0.08074457    -0.89700
C2020       C  0.95869028  0.49761290  0.13601168     1.19400
H2021       H  0.92203025  0.91071588  0.04107729     0.35300
H2022       H  0.54652776  0.95504765  0.03174224     0.46200
H2023       H  0.92740529  0.54732042  0.06794894     0.39700
H2024       H  0.94375133  0.00139019  0.43919521     0.36200
H2025       H  0.54798632  0.85594149  0.02807981     0.28000
H2026       H  0.53916531  0.51493574  0.41638268     0.33900
H2027       H  0.93134375  0.59519219  0.44717740     0.39800
H2028       H  0.97023250  0.90009846  0.10677353     0.34300
H2029       H  0.86781262  0.95055984  0.11454699     0.33200
H2030       H  0.84945813  0.52906714  0.06912863     0.34800
H2031       H  0.87756815  0.60331298  0.00529777     0.33800
H2032       H  0.54362227  0.92601163  0.09335642     0.37800
H2033       H  0.55283737  0.00611740  0.10732605     0.30500
H2034       H  0.89296710  0.91321425  0.42219965     0.34800
H2035       H  0.87110639  0.57440906  0.45220868     0.37600
H2036       H  0.88605332  0.91961693  0.09309869     0.30200
H2037       H  0.54319908  0.04516730  0.09918811     0.43100
H2038       H  0.55182247  0.91391349  0.45161896     0.33200
H2039       H  0.53935240  0.87092833  0.49616270     0.40800
H2040       H  0.88402851  0.58672516  0.04108282     0.32600
H2041       H  0.00394327  0.52959364  0.41824181     0.32700
H2042       H  0.87952614  0.95271563  0.41969742     0.33000
Zr2043     Zr  0.91917509  0.77440177  0.30262851     2.17500
O2044       O  0.87664976  0.82476134  0.31585024    -0.49400
O2045       O  0.92275454  0.76979834  0.36466732    -0.72600
O2046       O  0.85905788  0.76228939  0.30510865    -0.79400
O2047       O  0.98669715  0.83230947  0.27675317    -0.81100
O2048       O  0.85775544  0.70865765  0.28587710    -0.76800
O2049       O  0.93195743  0.83249271  0.29765942    -0.88400
O2050       O  0.96372773  0.72452012  0.37871143    -0.74400
O2051       O  0.93090423  0.71518789  0.31534960    -0.83800
O2052       O  0.98005385  0.76203604  0.31534165    -0.83500
O2053       O  0.90331010  0.74677068  0.25188892    -0.70300
O2054       O  0.94965745  0.78746047  0.25266535    -0.82400
Zr2055     Zr  0.50686072  0.68566171  0.22730592     2.26400
Zr2056     Zr  0.91579881  0.68725034  0.26490924     2.06300
Zr2057     Zr  0.51072090  0.77344424  0.26495676     2.10000
Zr2058     Zr  0.99196156  0.70283868  0.32717988     1.78800
O2059       O  0.53263947  0.80794247  0.22148924    -0.91200
O2060       O  0.98154713  0.65299329  0.35892957    -0.39000
O2061       O  0.52358469  0.71389626  0.27718323    -0.75700
O2062       O  0.97656247  0.67317143  0.27866730    -0.94400
O2063       O  0.94588744  0.69931779  0.21447263    -0.87700
O2064       O  0.99608065  0.74485897  0.21490546    -0.90500
C2065       C  0.93987922  0.74934994  0.38623497     1.03200
C2066       C  0.95731173  0.84740000  0.28800275     1.16200
C2067       C  0.84316249  0.73716876  0.29819522     1.07000
O2068       O  0.89509334  0.64671984  0.30292488    -0.92700
O2069       O  0.93728840  0.62879541  0.24931729    -0.88400
O2070       O  0.99233478  0.62757777  0.22882741    -0.81600
C2071       C  0.96637867  0.61317140  0.23786280     1.13600
O2072       O  0.88678225  0.80521453  0.19444555    -0.94600
Zr2073     Zr  0.93537430  0.75888171  0.20277409     1.88900
O2074       O  0.50356120  0.69191274  0.16546576    -0.71300
O2075       O  0.87722517  0.67675001  0.21882272    -0.50500
O2076       O  0.88876148  0.74197677  0.16858458    -0.95200
O2077       O  0.95361125  0.80805348  0.17540863    -0.52400
O2078       O  0.96242049  0.73576231  0.15109204    -0.71800
C2079       C  0.98649371  0.71094265  0.14400987     1.00500
O2080       O  0.54926483  0.63711324  0.20864437    -0.60600
O2081       O  0.54594738  0.79394450  0.30910640    -0.55400
O2082       O  0.56755109  0.69574200  0.22983714    -0.92100
O2083       O  0.57004406  0.74847436  0.25085579    -0.90500
O2084       O  0.54031198  0.72269698  0.35673890    -0.90900
O2085       O  0.54164911  0.65625640  0.33519946    -0.89700
C2086       C  0.58418115  0.71979153  0.23856704     1.19400
H2087       H  0.98586441  0.77543272  0.33427396     0.35300
H2088       H  0.98265408  0.64976138  0.28550427     0.46200
H2089       H  0.51015183  0.75048546  0.19610116     0.39700
H2090       H  0.87904856  0.75369240  0.24615659     0.36200
H2091       H  0.99122662  0.65588203  0.38178673     0.28000
H2092       H  0.86207433  0.66157492  0.22875201     0.33900
H2093       H  0.89815674  0.71884049  0.16031902     0.39800
H2094       H  0.53902560  0.71434191  0.38024833     0.34300
H2095       H  0.56347136  0.77402394  0.31524955     0.33200
H2096       H  0.55359727  0.81520300  0.23160042     0.34800
H2097       H  0.97465524  0.79884868  0.16212878     0.33800
H2098       H  0.55509656  0.65554191  0.31384160     0.37800
H2099       H  0.56320696  0.64577624  0.19053085     0.30500
H2100       H  0.86386333  0.81874538  0.33605557     0.34800
H2101       H  0.88524841  0.80911795  0.16967238     0.37600
H2102       H  0.55945842  0.80949414  0.29727523     0.30200
H2103       H  0.56561448  0.63165363  0.22782158     0.43100
H2104       H  0.91496202  0.63929715  0.31834368     0.33200
H2105       H  0.95601254  0.65640674  0.36235946     0.40800
H2106       H  0.96247493  0.82093327  0.19403979     0.32600
H2107       H  0.86152378  0.69869625  0.21546503     0.32700
H2108       H  0.85941989  0.82674651  0.29715535     0.33000
Zr2109     Zr  0.75107580  0.75866027  0.47567396     2.17500
O2110       O  0.79647678  0.76678757  0.43497772    -0.49400
O2111       O  0.74371816  0.82046989  0.47883996    -0.72600
O2112       O  0.73258308  0.76029928  0.41699778    -0.79400
O2113       O  0.82124035  0.74018851  0.04383646    -0.81100
O2114       O  0.68033738  0.74188803  0.41170463    -0.76800
O2115       O  0.81152893  0.75670007  0.49006428    -0.88400
O2116       O  0.70420983  0.83954958  0.02199434    -0.74400
O2117       O  0.68979460  0.77530992  0.48235687    -0.83800
O2118       O  0.74331812  0.77440947  0.03376914    -0.83500
O2119       O  0.72669343  0.70897404  0.46025553    -0.70300
O2120       O  0.77601578  0.70986420  0.00678361    -0.82400
Zr2121     Zr  0.68025051  0.69122547  0.05745256     2.26400
Zr2122     Zr  0.66483383  0.72554884  0.46845856     2.06300
Zr2123     Zr  0.76680532  0.72452439  0.06506239     2.10000
Zr2124     Zr  0.68191801  0.78980386  0.04075189     1.78800
O2125       O  0.80939540  0.67724115  0.08560007    -0.91200
O2126       O  0.63186122  0.82496688  0.01433928    -0.39000
O2127       O  0.70517766  0.74031463  0.07234867    -0.75700
O2128       O  0.65529983  0.74160937  0.02688238    -0.94400
O2129       O  0.68883594  0.67602271  0.99966904    -0.87700
O2130       O  0.74174864  0.67495234  0.05121775    -0.90500
C2131       C  0.72712025  0.84359627  0.49797023     1.03200
C2132       C  0.83089811  0.75141537  0.01544986     1.16200
C2133       C  0.70712062  0.75280165  0.39956912     1.07000
O2134       O  0.61707854  0.76898271  0.45000244    -0.92700
O2135       O  0.61056892  0.70756338  0.48737943    -0.88400
O2136       O  0.61964361  0.69163001  0.04259333    -0.81600
C2137       C  0.60039635  0.69788720  0.01632795     1.13600
O2138       O  0.80021845  0.65414443  0.45493056    -0.94600
Zr2139     Zr  0.75036446  0.66091987  0.99277862     1.88900
O2140       O  0.68793602  0.62956841  0.05228802    -0.71300
O2141       O  0.65058163  0.68220801  0.42971647    -0.50500
O2142       O  0.73748001  0.63169632  0.44106118    -0.95200
O2143       O  0.79839254  0.62104614  0.01707986    -0.52400
O2144       O  0.72560022  0.61178192  0.00953209    -0.71800
C2145       C  0.70374328  0.60673170  0.03239171     1.00500
O2146       O  0.64560878  0.67675692  0.10535634    -0.60600
O2147       O  0.78788676  0.76319061  0.10508306    -0.55400
O2148       O  0.69439433  0.69761027  0.11647908    -0.92100
O2149       O  0.74573504  0.71767194  0.12217875    -0.90500
O2150       O  0.69637073  0.81802571  0.09230239    -0.90900
O2151       O  0.63363247  0.80241877  0.08052578    -0.89700
C2152       C  0.71841111  0.70766026  0.13413197     1.19400
H2153       H  0.75569873  0.79264647  0.03993125     0.35300
H2154       H  0.63085348  0.74875227  0.03167606     0.46200
H2155       H  0.75024327  0.65609584  0.06597179     0.39700
H2156       H  0.73213461  0.70213292  0.43716610     0.36200
H2157       H  0.62913851  0.84683131  0.02671950     0.28000
H2158       H  0.63514735  0.69492231  0.41249988     0.33900
H2159       H  0.74932892  0.60791353  0.44377326     0.39800
H2160       H  0.71699028  0.80294739  0.10161768     0.34300
H2161       H  0.81097992  0.75115375  0.11250867     0.33200
H2162       H  0.82439005  0.67021647  0.06574406     0.34800
H2163       H  0.80067218  0.60073031  0.00229629     0.33800
H2164       H  0.63407190  0.78111202  0.09351770     0.37800
H2165       H  0.62521028  0.69518974  0.10690364     0.30500
H2166       H  0.78704377  0.78713977  0.42146069     0.34800
H2167       H  0.80672740  0.62946865  0.45054223     0.37600
H2168       H  0.79314547  0.78256265  0.09138730     0.30200
H2169       H  0.63588057  0.65637405  0.09828630     0.43100
H2170       H  0.60510181  0.77758609  0.47118970     0.33200
H2171       H  0.63782805  0.82995615  0.49346102     0.40800
H2172       H  0.78948706  0.61328872  0.03872612     0.32600
H2173       H  0.67261257  0.67401177  0.41750122     0.32700
H2174       H  0.79844248  0.74739327  0.41899594     0.33000
Zr2175     Zr  0.75699652  0.93374689  0.30392888     2.17500
O2176       O  0.79842345  0.88430887  0.32208339    -0.49400
O2177       O  0.75342792  0.93918118  0.36589358    -0.72600
O2178       O  0.81718366  0.94549482  0.30474654    -0.79400
O2179       O  0.69043231  0.87556782  0.27750795    -0.81100
O2180       O  0.81798583  0.99954564  0.28646550    -0.76800
O2181       O  0.74555702  0.87526291  0.29735951    -0.88400
O2182       O  0.71112260  0.98305442  0.38053234    -0.74400
O2183       O  0.74541672  0.99304701  0.31606735    -0.83800
O2184       O  0.69630231  0.94643707  0.31731327    -0.83500
O2185       O  0.77239803  0.96093852  0.25266365    -0.70300
O2186       O  0.72604204  0.92027987  0.25447069    -0.82400
Zr2187     Zr  0.66897070  0.52205230  0.22889488     2.26400
Zr2188     Zr  0.75983232  0.52035947  0.26508237     2.06300
Zr2189     Zr  0.66538070  0.93426557  0.26739464     2.10000
Zr2190     Zr  0.68458704  0.00581960  0.32860515     1.78800
O2191       O  0.64280009  0.89595768  0.22813548    -0.91200
O2192       O  0.70312507  0.55426470  0.35762239    -0.39000
O2193       O  0.65284038  0.99386778  0.27931618    -0.75700
O2194       O  0.69926905  0.53493076  0.27942964    -0.94400
O2195       O  0.72927085  0.50776596  0.21506610    -0.87700
O2196       O  0.67905135  0.96265535  0.21680557    -0.90500
C2197       C  0.73564330  0.95872799  0.38774149     1.03200
C2198       C  0.72009619  0.86037335  0.28792238     1.16200
C2199       C  0.83284198  0.97084521  0.29820215     1.07000
O2200       O  0.77826605  0.56025770  0.30529479    -0.92700
O2201       O  0.73835959  0.57879858  0.24913477    -0.88400
O2202       O  0.68291188  0.58012670  0.22972619    -0.81600
C2203       C  0.70912340  0.59448856  0.23804419     1.13600
O2204       O  0.78704283  0.90115297  0.19500504    -0.94600
Zr2205     Zr  0.73959999  0.94840268  0.20414833     1.88900
O2206       O  0.67113724  0.51525937  0.16692259    -0.71300
O2207       O  0.79790234  0.53400815  0.21983461    -0.50500
O2208       O  0.78642660  0.96420788  0.16953894    -0.95200
O2209       O  0.71934680  0.89957120  0.17807634    -0.52400
O2210       O  0.71327178  0.97170358  0.15228580    -0.71800
C2211       C  0.68842199  0.49537910  0.14499655     1.00500
O2212       O  0.62740284  0.57113981  0.21004710    -0.60600
O2213       O  0.62945076  0.91944871  0.31400523    -0.55400
O2214       O  0.60814102  0.51322876  0.23329061    -0.92100
O2215       O  0.60653014  0.95762622  0.25032519    -0.90500
O2216       O  0.63680970  0.98726953  0.35962385    -0.90900
O2217       O  0.63632530  0.55097121  0.33843326    -0.89700
C2218       C  0.59207039  0.98691052  0.23973446     1.19400
H2219       H  0.69065827  0.93322250  0.33642662     0.35300
H2220       H  0.69326990  0.55839699  0.28615707     0.46200
H2221       H  0.66454553  0.95728176  0.19834555     0.39700
H2222       H  0.79657723  0.95405884  0.24655598     0.36200
H2223       H  0.69156760  0.55503669  0.38002100     0.28000
H2224       H  0.81218981  0.54962660  0.23042271     0.33900
H2225       H  0.77956081  0.98888630  0.16531034     0.39800
H2226       H  0.63552054  0.00008407  0.38120705     0.34300
H2227       H  0.60970786  0.91089809  0.30295469     0.33200
H2228       H  0.62706764  0.88424386  0.24196275     0.34800
H2229       H  0.69694916  0.90879346  0.16697627     0.33800
H2230       H  0.61947379  0.54809373  0.32026301     0.37800
H2231       H  0.61352345  0.56263979  0.19182878     0.30500
H2232       H  0.81004936  0.89176190  0.34242613     0.34800
H2233       H  0.78771176  0.89708568  0.17024284     0.37600
H2234       H  0.64317558  0.89902924  0.32464348     0.30200
H2235       H  0.61088382  0.57684479  0.22906113     0.43100
H2236       H  0.78109454  0.54778680  0.32706458     0.33200
H2237       H  0.72820434  0.54710278  0.36273209     0.40800
H2238       H  0.71269019  0.88597079  0.19729260     0.32600
H2239       H  0.81444296  0.51272567  0.21595308     0.32700
H2240       H  0.81674544  0.88099026  0.30442741     0.33000
C2241       C  0.62156505  0.71389218  0.23516566    -0.11300
C2242       C  0.65305774  0.70821647  0.23348128    -0.12900
C2243       C  0.70392626  0.70615414  0.19871851    -0.11300
C2244       C  0.71308712  0.70829211  0.16984348    -0.12900
C2245       C  0.69992056  0.66176463  0.23704438    -0.11300
C2246       C  0.70471484  0.63101792  0.23714032    -0.12900
C2247       C  0.69549519  0.57316052  0.03531291    -0.11300
C2248       C  0.68726961  0.54539081  0.03766693    -0.12900
C2249       C  0.68086598  0.50105411  0.10958379    -0.11300
C2250       C  0.67804535  0.50493910  0.07927413    -0.12900
C2251       C  0.61272442  0.50998253  0.02047241    -0.11300
C2252       C  0.64209423  0.51174517  0.02929282    -0.12900
C2253       C  0.49729895  0.70110326  0.07817391    -0.11300
C2254       C  0.99409821  0.70507548  0.10871122    -0.12900
C2255       C  0.56442239  0.69465884  0.02063594    -0.11300
C2256       C  0.53489368  0.69321544  0.02926443    -0.12900
C2257       C  0.98168657  0.63046014  0.03748828    -0.11300
C2258       C  0.98970671  0.65839352  0.03857754    -0.12900
C2259       C  0.97614286  0.54592745  0.23813009    -0.11300
C2260       C  0.97103668  0.57665500  0.23754797    -0.12900
C2261       C  0.55469319  0.99275105  0.23647269    -0.11300
C2262       C  0.52285247  0.50021294  0.23595029    -0.12900
C2263       C  0.97275332  0.50081119  0.20057487    -0.11300
C2264       C  0.96371414  0.49794291  0.17175666    -0.12900
C2265       C  0.72140611  0.96596260  0.00779792    -0.11300
C2266       C  0.70154948  0.98638126  0.02395692    -0.12900
C2267       C  0.73444728  0.87748163  0.49466697    -0.11300
C2268       C  0.74067386  0.90610420  0.49344970    -0.12900
C2269       C  0.81061648  0.94822635  0.01250462    -0.11300
C2270       C  0.78232546  0.94343765  0.50344019    -0.12900
C2271       C  0.74629932  0.94889273  0.45341412    -0.11300
C2272       C  0.74308604  0.95305542  0.42317200    -0.12900
C2273       C  0.95560279  0.73766247  0.00694631    -0.11300
C2274       C  0.97537415  0.71714076  0.02304431    -0.12900
C2275       C  0.92995937  0.75670461  0.45222002    -0.11300
C2276       C  0.93254268  0.75424727  0.42176636    -0.12900
C2277       C  0.89484552  0.75926039  0.50268822    -0.11300
C2278       C  0.86640531  0.75602610  0.01116456    -0.12900
C2279       C  0.93686440  0.79657730  0.49485767    -0.11300
C2280       C  0.94364812  0.82491776  0.49707588    -0.12900
C2281       C  0.70769087  0.71801295  0.25770745    -0.11300
C2282       C  0.72073088  0.73585242  0.27718272    -0.12900
C2283       C  0.77429849  0.74726003  0.30291045    -0.11300
C2284       C  0.80586281  0.74193851  0.30249219    -0.12900
C2285       C  0.72099038  0.75464668  0.33484407    -0.11300
C2286       C  0.71108949  0.75432109  0.36369835    -0.12900
C2287       C  0.72506620  0.82392765  0.28881018    -0.11300
C2288       C  0.72905784  0.79340344  0.29172048    -0.12900
C2289       C  0.96878260  0.98962049  0.25887110    -0.12900
C2290       C  0.95556923  0.97191827  0.27831004    -0.12900
C2291       C  0.94744407  0.91436323  0.29253229    -0.11300
C2292       C  0.95225305  0.88383509  0.28947448    -0.12900
C2293       C  0.96450283  0.95235432  0.36470384    -0.11300
C2294       C  0.95450857  0.95298546  0.33585240    -0.12900
C2295       C  0.90168819  0.96049846  0.30314778    -0.11300
C2296       C  0.87014026  0.96610360  0.30240499    -0.12900
C2297       C  0.93976163  0.94962281  0.80189306    -0.00600
C2298       C  0.73588777  0.75746483  0.80104777    -0.00600
C2299       C  0.92987961  0.76246579  0.98910526    -0.00600
C2300       C  0.74735947  0.94164920  0.98960078    -0.00600
C2301       C  0.98553858  0.50833699  0.73420383    -0.00600
C2302       C  0.49943232  0.69226154  0.54199027    -0.00600
C2303       C  0.67724991  0.51142623  0.54261891    -0.00600
C2304       C  0.69087030  0.69823830  0.73272162    -0.00600
Zr2305     Zr  0.92623282  0.94424296  0.97690281     2.17500
O2306       O  0.88122945  0.93472059  0.93632060    -0.49400
O2307       O  0.93440774  0.88228092  0.98105541    -0.72600
O2308       O  0.94406889  0.94375026  0.91798107    -0.79400
O2309       O  0.85695838  0.96038887  0.54631529    -0.81100
O2310       O  0.99512999  0.96426124  0.91230838    -0.76800
O2311       O  0.86564518  0.94619629  0.99094296    -0.88400
O2312       O  0.97356373  0.86369243  0.52253929    -0.74400
O2313       O  0.98760189  0.92816943  0.98298295    -0.83800
O2314       O  0.93479766  0.92804667  0.53498385    -0.83500
O2315       O  0.94967211  0.99471166  0.96206724    -0.70300
O2316       O  0.90111763  0.99272223  0.50896106    -0.82400
Zr2317     Zr  0.99702524  0.01180797  0.55875718     2.26400
Zr2318     Zr  0.51175476  0.97847250  0.96916007     2.06300
Zr2319     Zr  0.91108281  0.97733670  0.56697823     2.10000
Zr2320     Zr  0.99639178  0.91327084  0.54131838     1.78800
O2321       O  0.86657971  0.52443228  0.58733103    -0.91200
O2322       O  0.54588068  0.87583289  0.51967960    -0.39000
O2323       O  0.97292147  0.96214112  0.57385814    -0.75700
O2324       O  0.52191262  0.96178688  0.52779481    -0.94400
O2325       O  0.98805352  0.52809662  0.50191170    -0.87700
O2326       O  0.93567178  0.52808918  0.55383163    -0.90500
C2327       C  0.95099938  0.85917055  0.00026622     1.03200
C2328       C  0.84673291  0.95128472  0.51724675     1.16200
C2329       C  0.96868926  0.95270139  0.90034020     1.07000
O2330       O  0.55953672  0.93712494  0.94713037    -0.92700
O2331       O  0.56634085  0.99560332  0.98842241    -0.88400
O2332       O  0.55731951  0.51297395  0.54329074    -0.81600
C2333       C  0.57641367  0.00649789  0.51643762     1.13600
O2334       O  0.87712217  0.55038908  0.95634333    -0.94600
Zr2335     Zr  0.92650106  0.54272644  0.49559683     1.88900
O2336       O  0.98995512  0.57389781  0.55499572    -0.71300
O2337       O  0.52426071  0.52429612  0.93315755    -0.50500
O2338       O  0.94196508  0.57039233  0.94301218    -0.95200
O2339       O  0.87868978  0.58253308  0.52030673    -0.52400
O2340       O  0.95181501  0.59151067  0.51255797    -0.71800
C2341       C  0.97396421  0.59666450  0.53509257     1.00500
O2342       O  0.53378944  0.02310213  0.60628599    -0.60600
O2343       O  0.89255821  0.93836310  0.60828257    -0.55400
O2344       O  0.98276377  0.50775064  0.61849181    -0.92100
O2345       O  0.93117549  0.98683085  0.62387591    -0.90500
O2346       O  0.98508000  0.88444209  0.59357972    -0.90900
O2347       O  0.54251243  0.90249740  0.58347102    -0.89700
C2348       C  0.95872067  0.49786267  0.63621714     1.19400
H2349       H  0.92258915  0.90965927  0.54117499     0.35300
H2350       H  0.54645668  0.95494876  0.53240054     0.46200
H2351       H  0.92721497  0.54675733  0.56883275     0.39700
H2352       H  0.94379445  0.00191888  0.93919143     0.36200
H2353       H  0.54615307  0.85402792  0.53183763     0.28000
H2354       H  0.54181125  0.51316183  0.91682373     0.33900
H2355       H  0.93421329  0.59500123  0.94687840     0.39800
H2356       H  0.99479997  0.86021524  0.58963246     0.34300
H2357       H  0.86999393  0.95041646  0.61706810     0.33200
H2358       H  0.84921924  0.52812645  0.56878029     0.34800
H2359       H  0.87727760  0.60345189  0.50647295     0.33800
H2360       H  0.54469366  0.92520019  0.59262876     0.37800
H2361       H  0.55353667  0.00391510  0.60670111     0.30500
H2362       H  0.89129298  0.91478254  0.92254061     0.34800
H2363       H  0.87366296  0.57456859  0.94933793     0.37600
H2364       H  0.88633320  0.91922065  0.59490960     0.30200
H2365       H  0.54426223  0.04327199  0.59993093     0.43100
H2366       H  0.56955365  0.92444425  0.96733342     0.33200
H2367       H  0.53843656  0.87300394  0.99287885     0.40800
H2368       H  0.88722928  0.58907326  0.54258085     0.32600
H2369       H  0.00352400  0.53193694  0.92133865     0.32700
H2370       H  0.87829205  0.95434820  0.92054460     0.33000
Zr2371     Zr  0.91943767  0.77381033  0.80285259     2.17500
O2372       O  0.87728298  0.82366981  0.81850273    -0.49400
O2373       O  0.92365364  0.76857158  0.86489952    -0.72600
O2374       O  0.85916402  0.76207059  0.80500239    -0.79400
O2375       O  0.98689032  0.83165109  0.77726787    -0.81100
O2376       O  0.85726353  0.70927356  0.78380160    -0.76800
O2377       O  0.93172594  0.83194738  0.79710972    -0.88400
O2378       O  0.96458737  0.72326087  0.87880712    -0.74400
O2379       O  0.93119371  0.71464385  0.81533642    -0.83800
O2380       O  0.98046485  0.76146936  0.81501624    -0.83500
O2381       O  0.90344678  0.74631958  0.75205091    -0.70300
O2382       O  0.94951067  0.78713390  0.75268360    -0.82400
Zr2383     Zr  0.50703530  0.68646379  0.72744280     2.26400
Zr2384     Zr  0.91591361  0.68671397  0.76496704     2.06300
Zr2385     Zr  0.51043096  0.77442812  0.76546884     2.10000
Zr2386     Zr  0.99226184  0.70223848  0.82684254     1.78800
O2387       O  0.53224185  0.81168368  0.72456544    -0.91200
O2388       O  0.98014531  0.65268995  0.85813777    -0.39000
O2389       O  0.52338312  0.71484665  0.77727289    -0.75700
O2390       O  0.97681926  0.67269547  0.77829869    -0.94400
O2391       O  0.94561806  0.69903810  0.71430956    -0.87700
O2392       O  0.99579793  0.74448857  0.71441193    -0.90500
C2393       C  0.94084324  0.74811943  0.88642846     1.03200
C2394       C  0.95729404  0.84678387  0.78795468     1.16200
C2395       C  0.84293390  0.73748050  0.79698830     1.07000
O2396       O  0.89552175  0.64837583  0.80565224    -0.92700
O2397       O  0.93789625  0.62810181  0.75011574    -0.88400
O2398       O  0.99254601  0.62710676  0.72866683    -0.81600
C2399       C  0.96685022  0.61257548  0.73822451     1.13600
O2400       O  0.88672696  0.80529046  0.69442630    -0.94600
Zr2401     Zr  0.93501761  0.75865024  0.70277601     1.88900
O2402       O  0.50387261  0.69292242  0.66558480    -0.71300
O2403       O  0.87810160  0.67228042  0.71984151    -0.50500
O2404       O  0.88703950  0.74211733  0.67033886    -0.95200
O2405       O  0.95326052  0.80747496  0.67472990    -0.52400
O2406       O  0.96148841  0.73577741  0.65072468    -0.71800
C2407       C  0.98573113  0.71114321  0.64351077     1.00500
O2408       O  0.54964958  0.63790010  0.70922075    -0.60600
O2409       O  0.54722961  0.79061930  0.81074464    -0.55400
O2410       O  0.56753645  0.69645242  0.73125954    -0.92100
O2411       O  0.56953493  0.75031697  0.74939118    -0.90500
O2412       O  0.53877670  0.72526706  0.85783596    -0.90900
O2413       O  0.54469113  0.66042697  0.83649079    -0.89700
C2414       C  0.58392014  0.72103780  0.73865865     1.19400
H2415       H  0.98656028  0.77486646  0.83384106     0.35300
H2416       H  0.98314430  0.64932706  0.78522340     0.46200
H2417       H  0.51026494  0.75146457  0.69645130     0.39700
H2418       H  0.87924153  0.75339822  0.74620401     0.36200
H2419       H  0.98868015  0.65568480  0.88141231     0.28000
H2420       H  0.86367889  0.65692910  0.73067897     0.33900
H2421       H  0.89620053  0.71922332  0.66139081     0.39800
H2422       H  0.53484065  0.72039901  0.88198436     0.34300
H2423       H  0.56655326  0.79925583  0.79897949     0.33200
H2424       H  0.55124864  0.82065163  0.73653315     0.34800
H2425       H  0.97568446  0.79853988  0.66351005     0.33800
H2426       H  0.54784513  0.64748796  0.81501450     0.37800
H2427       H  0.56359378  0.64651761  0.69113810     0.30500
H2428       H  0.86494132  0.81689596  0.83869186     0.34800
H2429       H  0.88532954  0.80923248  0.66965422     0.37600
H2430       H  0.53350814  0.81106461  0.82127368     0.30200
H2431       H  0.56596945  0.63250648  0.72846975     0.43100
H2432       H  0.89625198  0.65983265  0.82783002     0.33200
H2433       H  0.95442446  0.65613589  0.86035001     0.40800
H2434       H  0.95969669  0.82186426  0.69337146     0.32600
H2435       H  0.86163188  0.69352364  0.71547527     0.32700
H2436       H  0.85961710  0.82640335  0.80018470     0.33000
Zr2437     Zr  0.75085922  0.75969830  0.97563006     2.17500
O2438       O  0.79562234  0.76969546  0.93500546    -0.49400
O2439       O  0.74278484  0.82163345  0.98001889    -0.72600
O2440       O  0.73236388  0.76088871  0.91693578    -0.79400
O2441       O  0.82085312  0.74013637  0.54490512    -0.81100
O2442       O  0.68053768  0.74165961  0.91160161    -0.76800
O2443       O  0.81134535  0.75841012  0.98957019    -0.88400
O2444       O  0.70525231  0.83863275  0.52084809    -0.74400
O2445       O  0.68960458  0.77586372  0.98228549    -0.83800
O2446       O  0.74359829  0.77376734  0.53382664    -0.83500
O2447       O  0.72681287  0.70970963  0.96028907    -0.70300
O2448       O  0.77587853  0.70907874  0.50725145    -0.82400
Zr2449     Zr  0.67968104  0.69120291  0.55749474     2.26400
Zr2450     Zr  0.66490107  0.72592624  0.96850429     2.06300
Zr2451     Zr  0.76647324  0.72388965  0.56549729     2.10000
Zr2452     Zr  0.68227228  0.78954724  0.54081991     1.78800
O2453       O  0.80966013  0.67663411  0.58512115    -0.91200
O2454       O  0.63163041  0.82635584  0.51734953    -0.39000
O2455       O  0.70490410  0.74003288  0.57261940    -0.75700
O2456       O  0.65518058  0.74164216  0.52668632    -0.94400
O2457       O  0.68854585  0.67571583  0.49979510    -0.87700
O2458       O  0.74112404  0.67455117  0.55148631    -0.90500
C2459       C  0.72611345  0.84467381  0.99924136     1.03200
C2460       C  0.83079408  0.75049933  0.51624823     1.16200
C2461       C  0.70716916  0.75284699  0.89947315     1.07000
O2462       O  0.61758473  0.76997478  0.95034220    -0.92700
O2463       O  0.61057852  0.70833642  0.98777460    -0.88400
O2464       O  0.61911986  0.69218074  0.54257608    -0.81600
C2465       C  0.60014861  0.69772094  0.51608775     1.13600
O2466       O  0.80104139  0.65526962  0.95539082    -0.94600
Zr2467     Zr  0.75010672  0.66036817  0.49306940     1.88900
O2468       O  0.68729699  0.62947882  0.55256555    -0.71300
O2469       O  0.65009120  0.68311974  0.92940435    -0.50500
O2470       O  0.73688199  0.63267661  0.94079146    -0.95200
O2471       O  0.79912720  0.62158308  0.51716217    -0.52400
O2472       O  0.72540159  0.61139655  0.51023380    -0.71800
C2473       C  0.70331864  0.60650131  0.53291996     1.00500
O2474       O  0.64433908  0.67621226  0.60467312    -0.60600
O2475       O  0.78561047  0.76274015  0.60653696    -0.55400
O2476       O  0.69333344  0.69810182  0.61658538    -0.92100
O2477       O  0.74608847  0.71531685  0.62257145    -0.90500
O2478       O  0.69686909  0.81708899  0.59274828    -0.90900
O2479       O  0.63487250  0.80188046  0.58158902    -0.89700
C2480       C  0.71806273  0.70660489  0.63439422     1.19400
H2481       H  0.75614035  0.79193861  0.53988014     0.35300
H2482       H  0.63072325  0.74892882  0.53131034     0.46200
H2483       H  0.74936251  0.65571060  0.56633538     0.39700
H2484       H  0.73232548  0.70285429  0.93723793     0.36200
H2485       H  0.63169592  0.84873356  0.52828659     0.28000
H2486       H  0.63393916  0.69596508  0.91282141     0.33900
H2487       H  0.74997444  0.60926814  0.94257964     0.39800
H2488       H  0.71072382  0.79872422  0.60625158     0.34300
H2489       H  0.80836530  0.75077250  0.61489132     0.33200
H2490       H  0.82947058  0.67576308  0.56920008     0.34800
H2491       H  0.79969961  0.60005243  0.50447923     0.33800
H2492       H  0.63274093  0.77952658  0.59160227     0.37800
H2493       H  0.62481100  0.69541598  0.60713557     0.30500
H2494       H  0.78548350  0.78991162  0.92162396     0.34800
H2495       H  0.80647265  0.63089769  0.94928800     0.37600
H2496       H  0.79143085  0.78204707  0.59312107     0.30200
H2497       H  0.63335588  0.65685930  0.59673409     0.43100
H2498       H  0.60386453  0.75841994  0.93421918     0.33200
H2499       H  0.64001764  0.83045111  0.99151997     0.40800
H2500       H  0.79184154  0.61617175  0.54025968     0.32600
H2501       H  0.67177197  0.67543115  0.91643528     0.32700
H2502       H  0.79827555  0.75037990  0.91890332     0.33000
Zr2503     Zr  0.75676917  0.93326406  0.80322032     2.17500
O2504       O  0.79808210  0.88294501  0.81926216    -0.49400
O2505       O  0.75379729  0.93818854  0.86526284    -0.72600
O2506       O  0.81711420  0.94438744  0.80419546    -0.79400
O2507       O  0.68915794  0.87554141  0.77675917    -0.81100
O2508       O  0.81789442  0.99878279  0.78692761    -0.76800
O2509       O  0.74416944  0.87513155  0.79695058    -0.88400
O2510       O  0.71235938  0.98284859  0.87986960    -0.74400
O2511       O  0.74559656  0.99246203  0.81606565    -0.83800
O2512       O  0.69610950  0.94626034  0.81662859    -0.83500
O2513       O  0.77233646  0.96118588  0.75242825    -0.70300
O2514       O  0.72592115  0.92020482  0.75353813    -0.82400
Zr2515     Zr  0.66926114  0.52126997  0.72889869     2.26400
Zr2516     Zr  0.75959754  0.51998598  0.76682162     2.06300
Zr2517     Zr  0.66530313  0.93438247  0.76655891     2.10000
Zr2518     Zr  0.68477953  0.00558880  0.82830643     1.78800
O2519       O  0.64342017  0.89893771  0.72396221    -0.91200
O2520       O  0.69819651  0.55371102  0.85758936    -0.39000
O2521       O  0.65300918  0.99389489  0.77889119    -0.75700
O2522       O  0.69864260  0.53367629  0.78010281    -0.94400
O2523       O  0.72988937  0.50788964  0.71611778    -0.87700
O2524       O  0.67942488  0.96273068  0.71625530    -0.90500
C2525       C  0.73643989  0.95810899  0.88710777     1.03200
C2526       C  0.71869836  0.86031392  0.78740506     1.16200
C2527       C  0.83276223  0.96984472  0.79813294     1.07000
O2528       O  0.77854819  0.56037419  0.80620091    -0.92700
O2529       O  0.73786945  0.57853100  0.75143072    -0.88400
O2530       O  0.68292807  0.57945619  0.73074669    -0.81600
C2531       C  0.70875929  0.59403603  0.73983277     1.13600
O2532       O  0.78915367  0.90291729  0.69645696    -0.94600
Zr2533     Zr  0.74001029  0.94887377  0.70367140     1.88900
O2534       O  0.67158841  0.51477042  0.66687875    -0.71300
O2535       O  0.79792315  0.53116894  0.72078561    -0.50500
O2536       O  0.78539998  0.96711414  0.66881468    -0.95200
O2537       O  0.72256898  0.89973713  0.67554337    -0.52400
O2538       O  0.71229980  0.97068265  0.65196733    -0.71800
C2539       C  0.68936385  0.49516131  0.64503038     1.00500
O2540       O  0.62756221  0.57062722  0.71097243    -0.60600
O2541       O  0.63001781  0.91679874  0.81229366    -0.55400
O2542       O  0.60866867  0.51144537  0.73232863    -0.92100
O2543       O  0.60612226  0.95826419  0.75147435    -0.90500
O2544       O  0.63721946  0.98792280  0.86041643    -0.90900
O2545       O  0.63289989  0.54763754  0.83681069    -0.89700
C2546       C  0.59185420  0.98722679  0.73998328     1.19400
H2547       H  0.69025488  0.93297584  0.83562662     0.35300
H2548       H  0.69231983  0.55702701  0.78700999     0.46200
H2549       H  0.66499857  0.95730513  0.69778362     0.39700
H2550       H  0.79651098  0.95435986  0.74632602     0.36200
H2551       H  0.69061013  0.55147452  0.88129791     0.28000
H2552       H  0.81209227  0.54733498  0.73044971     0.33900
H2553       H  0.77738973  0.99164740  0.66467691     0.39800
H2554       H  0.64191842  0.99326797  0.88430222     0.34300
H2555       H  0.61267493  0.93721843  0.81748916     0.33200
H2556       H  0.62768380  0.88613666  0.73650302     0.34800
H2557       H  0.69796962  0.90713124  0.66868457     0.33800
H2558       H  0.62592681  0.55543371  0.81362661     0.37800
H2559       H  0.61390478  0.56251031  0.69236953     0.30500
H2560       H  0.81158238  0.89000942  0.83851405     0.34800
H2561       H  0.79160386  0.89932568  0.67170445     0.37600
H2562       H  0.61629248  0.90079278  0.80156378     0.30200
H2563       H  0.61087330  0.57570106  0.72995209     0.43100
H2564       H  0.78321931  0.54766240  0.82770226     0.33200
H2565       H  0.72401149  0.54979437  0.85874705     0.40800
H2566       H  0.72128880  0.88306151  0.69388261     0.32600
H2567       H  0.81456980  0.50968975  0.71803958     0.32700
H2568       H  0.81490018  0.87907195  0.80027120     0.33000
C2569       C  0.62131296  0.71490680  0.73556711    -0.11300
C2570       C  0.65276861  0.70840820  0.73395879    -0.12900
C2571       C  0.70368420  0.70492488  0.69906621    -0.11300
C2572       C  0.71281645  0.70690806  0.67014614    -0.12900
C2573       C  0.69914579  0.66134124  0.73831915    -0.11300
C2574       C  0.70405657  0.63059216  0.73891683    -0.12900
C2575       C  0.69510856  0.57289945  0.53583205    -0.11300
C2576       C  0.68715621  0.54497953  0.53784575    -0.12900
C2577       C  0.68169425  0.50047217  0.60954855    -0.11300
C2578       C  0.67859094  0.50416242  0.57921303    -0.12900
C2579       C  0.61236418  0.51001044  0.52110990    -0.11300
C2580       C  0.64185838  0.51150481  0.52973893    -0.12900
C2581       C  0.49716260  0.70097705  0.57823556    -0.11300
C2582       C  0.99356246  0.70552989  0.60815726    -0.12900
C2583       C  0.56425024  0.69421505  0.52033638    -0.11300
C2584       C  0.53485080  0.69256543  0.52924641    -0.12900
C2585       C  0.98229665  0.63029988  0.53731636    -0.11300
C2586       C  0.99006588  0.65836215  0.53827076    -0.12900
C2587       C  0.97679170  0.54533130  0.73849284    -0.11300
C2588       C  0.97168667  0.57605630  0.73797425    -0.12900
C2589       C  0.55448276  0.99305142  0.73671814    -0.11300
C2590       C  0.52352041  0.49886266  0.73491531    -0.12900
C2591       C  0.97291602  0.50049661  0.70081727    -0.11300
C2592       C  0.96381158  0.49800333  0.67196386    -0.12900
C2593       C  0.72161592  0.96457441  0.50847405    -0.11300
C2594       C  0.70145561  0.98496599  0.52437362    -0.12900
C2595       C  0.73338452  0.87861116  0.99604250    -0.11300
C2596       C  0.73988113  0.90712183  0.99426228    -0.12900
C2597       C  0.81112775  0.94688380  0.51276199    -0.11300
C2598       C  0.78191124  0.94440150  0.00321231    -0.12900
C2599       C  0.74628375  0.94871458  0.95297912    -0.11300
C2600       C  0.74365088  0.95240875  0.92261445    -0.12900
C2601       C  0.95524585  0.73740139  0.50630873    -0.11300
C2602       C  0.97516426  0.71698467  0.52236376    -0.12900
C2603       C  0.93111120  0.75620919  0.95239321    -0.11300
C2604       C  0.93375668  0.75320176  0.92198891    -0.12900
C2605       C  0.89522737  0.75974163  0.00228295    -0.11300
C2606       C  0.86625480  0.75520796  0.51196805    -0.12900
C2607       C  0.93742868  0.79678721  0.99461658    -0.11300
C2608       C  0.94377681  0.82528674  0.99686560    -0.12900
C2609       C  0.70752264  0.71771268  0.75783108    -0.11300
C2610       C  0.72052163  0.73570992  0.77712372    -0.12900
C2611       C  0.77407607  0.74776895  0.80207739    -0.11300
C2612       C  0.80562734  0.74251129  0.80124601    -0.12900
C2613       C  0.72117770  0.75437869  0.83473824    -0.11300
C2614       C  0.71132424  0.75404776  0.86360813    -0.12900
C2615       C  0.72362960  0.82390062  0.78846373    -0.11300
C2616       C  0.72807338  0.79339267  0.79149669    -0.12900
C2617       C  0.96848418  0.98937248  0.75894400    -0.12900
C2618       C  0.95539020  0.97138703  0.77817835    -0.12900
C2619       C  0.94752622  0.91370754  0.79228220    -0.11300
C2620       C  0.95226619  0.88318934  0.78930115    -0.12900
C2621       C  0.96411040  0.95219258  0.86453108    -0.11300
C2622       C  0.95432278  0.95240690  0.83563581    -0.12900
C2623       C  0.90160756  0.95956784  0.80289162    -0.11300
C2624       C  0.87006314  0.96501865  0.80222980    -0.12900
loop_ 
_geom_bond_atom_site_label_1 
_geom_bond_atom_site_label_2 
_geom_bond_distance 
_geom_bond_site_symmetry_2 
_ccdc_geom_bond_type 
C1          C322   1.472       .  S
C1          C323   1.465       .  S
C1          C326   1.460       .  S
C1          C327   1.470       .  S
C2          C314   1.474       .  S
C2          C315   1.472       .  S
C2          C317   1.463       .  S
C2          C320   1.462       .  S
C3          C307   1.471       .  S
C3          C309   1.466       .  S
C3          C311   1.462       .  S
C3          C633   1.468       .  S
C4          C300   1.460       .  S
C4          C302   1.465       .  S
C4          C303   1.471       .  S
C4          C625   1.467       .  S
C5          C291   1.469       .  S
C5          C295   1.457       .  S
C5         C1606   1.470   1_545  S
C5          C977   1.472   1_545  S
C6          C285   1.471       .  S
C6          C288   1.467   1_655  S
C6         C1602   1.462       .  S
C6         C1618   1.469       .  S
C7          C280   1.461       .  S
C7          C282   1.473       .  S
C7          C284   1.466       .  S
C7          C954   1.470   1_545  S
C8          C274   1.471       .  S
C8          C275   1.457       .  S
C8          C277   1.467       .  S
C8          C313   1.474       .  S
Zr9          O10   2.445       .  S
Zr9          O11   2.438       .  S
Zr9          O12   2.430       .  S
Zr9          O15   2.407       .  S
Zr9          O17   2.379       .  S
Zr9          O19   2.406       .  S
Zr9         O346   2.379       .  S
Zr9         O348   2.403       .  S
O10          H66   0.990       .  S
O10          H74   0.991       .  S
O11          C31   1.282       .  A
O12          C33   1.280       .  A
O13         Zr23   2.448       .  S
O13          C32   1.285       .  A
O14       Zr1334   2.432       .  S
O14          C33   1.282       .  A
O15         C360   1.277       .  A
O16         Zr24   2.406       .  S
O16         C359   1.276       .  A
O17       Zr1334   2.408       .  S
O17        Zr352   2.386       .  S
O18         Zr23   2.392       .  S
O18         Zr24   2.379       .  S
O18        Zr337   2.378   1_554  S
O18          H53   0.966       .  S
O19       Zr1334   2.406       .  S
O19       Zr1023   2.387       .  S
O19          H56   0.964       .  S
O20         Zr23   2.385       .  S
O20        Zr337   2.404   1_554  S
O20        Zr695   2.389   1_554  S
Zr21       O1358   2.444       .  S
Zr21        O696   2.434       .  S
Zr21        O704   2.414       .  S
Zr21       O2004   2.420       .  S
Zr21         O27   2.395       .  S
Zr21       O1340   2.408       .  S
Zr21        O685   2.370       .  S
Zr21        O686   2.386       .  S
Zr22         O34   2.434       .  S
Zr22        O697   2.436       .  S
Zr22         O35   2.450       .  S
Zr22       O1326   2.437   1_455  S
Zr22       O1329   2.411   1_455  S
Zr22       O1331   2.407   1_455  S
Zr22        O356   2.403       .  S
Zr22       O2325   2.391   1_455  S
Zr23         O47   2.439       .  S
Zr23        O681   2.435       .  S
Zr23         O49   2.431       .  S
Zr23         O27   2.392       .  S
Zr23        O686   2.401       .  S
Zr24         O50   2.437       .  S
Zr24       O1363   2.436       .  S
Zr24       O1338   2.437       .  S
Zr24         O27   2.384       .  S
Zr24        O345   2.385   1_554  S
Zr24       O1340   2.388       .  S
O25        Zr679   2.435   1_545  S
O25          H62   0.990       .  S
O26       Zr1336   2.438   1_455  S
O26          H57   0.989       .  S
O26         H399   0.991   1_554  S
O28       Zr1333   2.408   1_455  S
O28        Zr350   2.404   1_554  S
O28       Zr1336   2.388   1_455  S
O28          H54   0.965       .  S
O29         Zr39   2.382   1_554  S
O29        Zr677   2.371       .  S
O29       Zr2318   2.393   1_544  S
O30         Zr39   2.385   1_554  S
O30        Zr677   2.384       .  S
O30        Zr679   2.402   1_545  S
O30          H55   0.965       .  S
C31         O344   1.277       .  A
C31         C312   1.430       .  S
C32         O343   1.277   1_554  A
C32         C301   1.431       .  S
C33         C325   1.428       .  S
O34          H70   0.990       .  S
O35         C365   1.286       .  A
O36       Zr1989   2.419   1_455  S
O36         C693   1.278       .  A
C37         O363   1.285   1_554  A
C37         O692   1.278       .  A
C37         C939   1.431       .  S
O38        Zr367   2.440       .  S
O38          H67   0.989       .  S
Zr39         O43   2.442   1_556  S
Zr39        O366   2.442       .  S
Zr39        O370   2.439       .  S
Zr39         O44   2.410   1_556  S
Zr39       O1003   2.385   1_545  S
Zr39        O676   2.396   1_546  S
O40        Zr677   2.436       .  S
O40          C45   1.282       .  A
O41        Zr678   2.436   1_545  S
O41          H58   0.991       .  S
O41        H1385   0.991       .  S
O42        Zr367   2.437       .  S
O42          H59   0.989       .  S
O43          H63   0.990       .  S
O43          H72   0.989       .  S
O44          C45   1.277       .  A
C45         C289   1.431       .  S
O46       Zr1333   2.444   1_455  S
O46          H65   0.991       .  S
O46          H69   0.991       .  S
O47          H61   0.990       .  S
O47          H68   0.990       .  S
O48        Zr677   2.412       .  S
O48          C52   1.278   1_545  A
O49         C708   1.283       .  A
O50          H60   0.991       .  S
O51       Zr1336   2.436   1_455  S
O51          H64   0.991       .  S
C52         O705   1.282       .  A
C52         C296   1.424       .  S
H71         O354   0.990       .  S
H73        O1353   0.991       .  S
Zr75         O76   2.441       .  S
Zr75         O77   2.461       .  S
Zr75         O78   2.458       .  S
Zr75         O81   2.450       .  S
Zr75         O83   2.378       .  S
Zr75         O84   2.389       .  S
Zr75         O85   2.416       .  S
Zr75         O86   2.402       .  S
O76         H132   0.991       .  S
O76         H140   0.990       .  S
O77          C97   1.287       .  A
O78          C99   1.286       .  A
O79       Zr1401   2.421       .  S
O79          C98   1.281       .  A
O80         Zr88   2.430       .  S
O80          C99   1.282       .  A
O81          C98   1.286       .  A
O82         Zr90   2.400       .  S
O82          C97   1.275       .  A
O83         Zr88   2.398       .  S
O83         Zr90   2.387       .  S
O84         Zr90   2.377       .  S
O84       Zr1401   2.399       .  S
O84         H119   0.966       .  S
O85         Zr88   2.399       .  S
O85        Zr105   2.394       .  S
O85         H122   0.965       .  S
O86        Zr105   2.384       .  S
O86       Zr1401   2.388       .  S
Zr87        O112   2.441       .  S
Zr87        O106   2.455       .  S
Zr87        O114   2.458       .  S
Zr87       O1414   2.459   1_455  S
Zr87         O93   2.409       .  S
Zr87       O1406   2.414   1_455  S
Zr87       O1407   2.383   1_455  S
Zr87       O1408   2.383   1_455  S
Zr88        O107   2.436       .  S
Zr88        O100   2.435       .  S
Zr88        O101   2.425       .  S
Zr88         O94   2.400       .  S
Zr88         O95   2.398       .  S
Zr89         O91   2.436       .  S
Zr89        O113   2.436       .  S
Zr89        O115   2.422       .  S
Zr89       O1391   2.417   1_455  S
Zr89         O93   2.395       .  S
Zr89       O1396   2.401   1_455  S
Zr89       O1398   2.387   1_455  S
Zr89       O1408   2.392   1_455  S
Zr90         O92   2.437       .  S
Zr90       O1428   2.436       .  S
Zr90       O1429   2.435       .  S
Zr90         O94   2.377       .  S
Zr90       O1405   2.391       .  S
O91         H128   0.989       .  S
O92         H123   0.990       .  S
O92         H137   0.990       .  S
O93       Zr1402   2.394   1_455  S
O94       Zr1399   2.412       .  S
O94         H120   0.963       .  S
O95        Zr105   2.386       .  S
O95       Zr1399   2.384       .  S
O96        Zr105   2.381       .  S
O96       Zr1399   2.387       .  S
O96       Zr1401   2.396       .  S
O96        H1433   0.966       .  S
C97         C308   1.439       .  S
C98         C324   1.434       .  S
C99         C316   1.441       .  S
O100        H136   0.990       .  S
O101        C103   1.282       .  A
O102      Zr1399   2.460       .  S
O102        C103   1.289       .  A
C103        C292   1.437       .  S
O104       Zr105   2.438       .  S
O104        H133   0.990       .  S
Zr105       O108   2.437       .  S
Zr105       O109   2.440       .  S
Zr105       O110   2.410       .  S
O106       C1423   1.285   1_455  A
O107        H124   0.990       .  S
O107        H139   0.991       .  S
O108        H125   0.990       .  S
O109        H129   0.990       .  S
O109        H138   0.990       .  S
O110        C111   1.277       .  A
C111       O1418   1.286       .  A
C111        C286   1.439       .  S
O112        H131   0.991       .  S
O112        H135   0.989       .  S
O113        H127   0.990       .  S
O113        H134   0.990       .  S
O114        C118   1.287       .  A
O115        C118   1.281       .  A
O116      Zr1402   2.436   1_455  S
O116        H126   0.991       .  S
O117      Zr1402   2.436   1_455  S
O117        H130   0.989       .  S
C118        C273   1.440       .  S
H121       O1408   0.966   1_455  S
Zr141       O142   2.445       .  S
Zr141       O143   2.440       .  S
Zr141       O144   2.425       .  S
Zr141       O147   2.407       .  S
Zr141       O149   2.381       .  S
Zr141       O151   2.405       .  S
Zr141       O478   2.378       .  S
Zr141       O480   2.400       .  S
O142        H198   0.989       .  S
O142        H206   0.992       .  S
O143        C163   1.283       .  A
O144        C165   1.280       .  A
O145       Zr155   2.448       .  S
O145        C164   1.286       .  A
O146       Zr154   2.437       .  S
O146        C165   1.283       .  A
O147        C492   1.277       .  A
O148       Zr156   2.416       .  S
O148        C491   1.279   1_554  A
O149       Zr154   2.408       .  S
O149       Zr484   2.385       .  S
O150       Zr155   2.389       .  S
O150       Zr156   2.380       .  S
O150       Zr469   2.379   1_554  S
O150        H185   0.966       .  S
O151       Zr154   2.404       .  S
O151       Zr499   2.384       .  S
O151        H188   0.965       .  S
O152       Zr155   2.385       .  S
O152       Zr171   2.390   1_554  S
O152       Zr469   2.402   1_554  S
Zr153       O178   2.444       .  S
Zr153       O172   2.436       .  S
Zr153       O180   2.417       .  S
Zr153       O168   2.422       .  S
Zr153       O159   2.395       .  S
Zr153       O160   2.408       .  S
Zr153       O161   2.370   1_554  S
Zr153       O162   2.385       .  S
Zr154       O173   2.435       .  S
Zr154       O166   2.434       .  S
Zr154       O167   2.450       .  S
Zr154       O488   2.402       .  S
Zr154       O489   2.389       .  S
Zr155       O157   2.435       .  S
Zr155       O179   2.438       .  S
Zr155       O181   2.429       .  S
Zr155       O159   2.390       .  S
Zr155       O162   2.400       .  S
Zr156       O182   2.435       .  S
Zr156       O183   2.436       .  S
Zr156       O158   2.438       .  S
Zr156       O159   2.386       .  S
Zr156       O160   2.389       .  S
Zr156       O477   2.383   1_554  S
O157        H194   0.990       .  S
O158        H189   0.991       .  S
O158        H531   0.990   1_554  S
O160       Zr482   2.399   1_554  S
O160        H186   0.964       .  S
O161       Zr171   2.384       .  S
O161       Zr482   2.392       .  S
O162       Zr171   2.387   1_554  S
O162        H187   0.965       .  S
C163        O476   1.277       .  A
C163        C299   1.429       .  S
C164        O475   1.277   1_554  A
C164        C310   1.431       .  S
C165        C318   1.429       .  S
O166        H202   0.989       .  S
O167        C497   1.286       .  A
O168        C169   1.278       .  A
C169        O495   1.285   1_554  A
C169        C287   1.433       .  S
O170       Zr499   2.441       .  S
O170        H199   0.989       .  S
Zr171       O175   2.442   1_556  S
Zr171       O498   2.442       .  S
Zr171       O502   2.439       .  S
Zr171       O176   2.408   1_556  S
Zr171       O479   2.386       .  S
O172        C177   1.281       .  A
O173        H190   0.989       .  S
O173        H205   0.991       .  S
O174       Zr499   2.438       .  S
O174        H191   0.990       .  S
O175        H195   0.990       .  S
O175        H204   0.989       .  S
O176        C177   1.277       .  A
C177        C279   1.429       .  S
O178        H197   0.992       .  S
O178        H201   0.991       .  S
O179        H193   0.990       .  S
O179        H200   0.990       .  S
O180        C184   1.279       .  A
O181        C184   1.282       .  A
O182        H192   0.990       .  S
O183        H196   0.991       .  S
C184        C276   1.425       .  S
H203        O486   0.990       .  S
Zr207       O208   2.440       .  S
Zr207       O209   2.458       .  S
Zr207       O210   2.455       .  S
Zr207       O213   2.452       .  S
Zr207       O215   2.378       .  S
Zr207       O216   2.388       .  S
Zr207       O217   2.415       .  S
Zr207       O218   2.398       .  S
O208        H264   0.990       .  S
O208        H272   0.990       .  S
O209        C229   1.286       .  A
O210        C231   1.286       .  A
O211       Zr221   2.412       .  S
O211        C230   1.279       .  A
O212       Zr876   2.423       .  S
O212        C231   1.281       .  A
O213        C230   1.287       .  A
O214       Zr222   2.408       .  S
O214        C229   1.276       .  A
O215       Zr222   2.383       .  S
O215       Zr876   2.398       .  S
O216       Zr221   2.399       .  S
O216       Zr222   2.377       .  S
O216        H251   0.966       .  S
O217       Zr237   2.394       .  S
O217       Zr876   2.402       .  S
O217        H254   0.966       .  S
O218       Zr221   2.389       .  S
O218       Zr237   2.383       .  S
Zr219       O244   2.441       .  S
Zr219       O238   2.463       .  S
Zr219       O246   2.455       .  S
Zr219       O234   2.460       .  S
Zr219       O226   2.414       .  S
Zr219       O227   2.383       .  S
Zr219       O881   2.407   1_545  S
Zr219       O884   2.384   1_545  S
Zr220       O239   2.436       .  S
Zr220       O232   2.434       .  S
Zr220       O233   2.420       .  S
Zr220       O868   2.425   1_545  S
Zr220       O226   2.401       .  S
Zr220       O227   2.397       .  S
Zr220       O871   2.399   1_545  S
Zr220       O873   2.398   1_545  S
Zr221       O223   2.437       .  S
Zr221       O245   2.436       .  S
Zr221       O247   2.422       .  S
Zr221       O225   2.389       .  S
Zr221       O228   2.394       .  S
Zr222       O248   2.438       .  S
Zr222       O905   2.435       .  S
Zr222       O880   2.438       .  S
Zr222       O225   2.392       .  S
Zr222       O882   2.381       .  S
O223        H260   0.990       .  S
O224       Zr878   2.438       .  S
O224        H255   0.990       .  S
O224        H269   0.991       .  S
O225       Zr875   2.407       .  S
O226       Zr878   2.379       .  S
O226        H252   0.964       .  S
O227       Zr893   2.383   1_545  S
O228       Zr237   2.383       .  S
O228       Zr875   2.384       .  S
O228        H253   0.966       .  S
C229        C304   1.439       .  S
C230        C319   1.431       .  S
C231        C328   1.437       .  S
O232        H268   0.989       .  S
O233        C235   1.280       .  A
O234        C235   1.288       .  A
C235        C278   1.435       .  S
O236       Zr237   2.440       .  S
O236        H265   0.992       .  S
Zr237       O240   2.438       .  S
Zr237       O241   2.440       .  S
Zr237       O242   2.405       .  S
Zr237       O883   2.385       .  S
O238        C243   1.287   1_545  A
O239        H256   0.990       .  S
O239        H271   0.990       .  S
O240        H257   0.990       .  S
O241        H261   0.989       .  S
O241        H270   0.990       .  S
O242        C899   1.276       .  A
C243        O898   1.277       .  A
C243        C281   1.441   1_565  S
O244        H263   0.990       .  S
O244        H267   0.990       .  S
O245        H259   0.990       .  S
O245        H266   0.989       .  S
O246        C906   1.286   1_545  A
O247        C250   1.280       .  A
O248        H258   0.990       .  S
O249       Zr878   2.435       .  S
O249        H262   0.990       .  S
C250        O902   1.285       .  A
C250        C293   1.439       .  S
C273        C274   1.209       .  T
C275        C276   1.201       .  T
C277        C278   1.207       .  T
C279        C280   1.204       .  T
C281        C282   1.211       .  T
C283        C693   1.433       .  S
C283        C284   1.206       .  T
C285       C1598   1.209       .  T
C286       C1597   1.209       .  T
C287        C288   1.207       .  T
C289        C290   1.205       .  T
C290       C1318   1.463       .  S
C291        C292   1.209       .  T
C293        C950   1.209       .  T
C294       C1317   1.470   1_465  S
C294        C949   1.209       .  T
C295        C296   1.201   1_545  T
C297        C332   1.467   1_554  S
C297        C298   1.208       .  T
C298        C663   1.467       .  S
C299        C300   1.203       .  T
C301        C630   1.206       .  T
C302        C629   1.205       .  T
C303        C304   1.210       .  T
C305        C331   1.469   1_554  S
C305        C306   1.209       .  T
C306       C1318   1.469       .  S
C307        C308   1.209       .  T
C309        C638   1.206       .  T
C310        C637   1.205       .  T
C311        C312   1.204       .  T
C313        C314   1.212       .  T
C315        C316   1.210       .  T
C317        C318   1.204       .  T
C319        C320   1.205       .  T
C321        C661   1.472       .  S
C321        C322   1.211       .  T
C323        C324   1.206       .  T
C325        C326   1.203       .  T
C327        C328   1.208       .  T
C329        C650   1.474       .  S
C329        C651   1.465       .  S
C329        C654   1.460       .  S
C329        C655   1.471       .  S
C330        C642   1.472       .  S
C330        C643   1.473       .  S
C330        C645   1.460       .  S
C330        C648   1.463       .  S
C331        C635   1.471       .  S
C331        C637   1.464   1_556  S
C331        C639   1.461       .  S
C332        C628   1.464       .  S
C332        C630   1.465   1_556  S
C332        C631   1.472       .  S
C333        C619   1.468       .  S
C333       C1934   1.470   1_545  S
C333        C623   1.459       .  S
C333       C1305   1.474   1_545  S
C334        C613   1.472       .  S
C334        C616   1.466   1_655  S
C334       C1930   1.462       .  S
C334       C1946   1.466       .  S
C335        C608   1.461       .  S
C335        C610   1.472       .  S
C335        C612   1.465       .  S
C335       C1282   1.470   1_545  S
C336        C602   1.470       .  S
C336        C603   1.458       .  S
C336        C605   1.467       .  S
C336        C641   1.472       .  S
Zr337       O338   2.444       .  S
Zr337       O339   2.440       .  S
Zr337       O340   2.428       .  S
Zr337       O343   2.406       .  S
Zr337       O345   2.377       .  S
Zr337       O347   2.408       .  S
O338        H394   0.990       .  S
O338        H402   0.991       .  S
O339        C359   1.282   1_556  A
O340        C361   1.280       .  A
O341       Zr351   2.444       .  S
O341        C360   1.285       .  A
O342      Zr1662   2.430       .  S
O342        C361   1.282       .  A
O344       Zr352   2.410       .  S
O345      Zr1662   2.407       .  S
O346       Zr351   2.392       .  S
O346       Zr352   2.379       .  S
O346        H381   0.965       .  S
O347      Zr1662   2.404       .  S
O347       Zr695   2.384       .  S
O347        H384   0.965       .  S
O348       Zr351   2.386       .  S
O348      Zr1023   2.391       .  S
Zr349      O1686   2.444       .  S
Zr349      O1024   2.432       .  S
Zr349      O1032   2.413       .  S
Zr349      O2332   2.422       .  S
Zr349       O355   2.396       .  S
Zr349      O1668   2.408       .  S
Zr349      O1013   2.370       .  S
Zr349      O1014   2.385       .  S
Zr350      O1025   2.436       .  S
Zr350       O362   2.436       .  S
Zr350      O1654   2.432   1_455  S
Zr350       O363   2.444       .  S
Zr350      O1657   2.407   1_455  S
Zr350      O1659   2.406   1_455  S
Zr350      O1997   2.392   1_456  S
Zr351      O1009   2.435       .  S
Zr351       O375   2.439       .  S
Zr351       O377   2.429       .  S
Zr351       O355   2.392       .  S
Zr351      O1014   2.401       .  S
Zr352       O378   2.436       .  S
Zr352      O1691   2.436       .  S
Zr352      O1666   2.437       .  S
Zr352       O355   2.384       .  S
Zr352      O1668   2.386       .  S
O353      Zr1007   2.436   1_545  S
O353        H390   0.990       .  S
O354      Zr1664   2.437   1_455  S
O354        H385   0.991       .  S
O356      Zr1661   2.408   1_455  S
O356      Zr1664   2.388   1_455  S
O356        H382   0.964       .  S
O357      Zr1005   2.368       .  S
O357      Zr1990   2.393   1_545  S
O357       Zr367   2.384       .  S
O358      Zr1005   2.384       .  S
O358      Zr1007   2.403   1_545  S
O358       Zr367   2.384       .  S
O358        H383   0.966       .  S
C359        C640   1.430   1_554  S
C360        C629   1.431       .  S
C361        C653   1.427       .  S
O362        H398   0.990       .  S
O364      Zr2317   2.419   1_455  S
O364       C1021   1.278       .  A
C365       O1020   1.278       .  A
C365       C1267   1.434       .  S
O366        H395   0.991       .  S
Zr367       O371   2.443       .  S
Zr367       O372   2.409       .  S
Zr367       O675   2.383   1_545  S
Zr367      O1004   2.390   1_545  S
O368      Zr1005   2.439       .  S
O368        C373   1.282       .  A
O369      Zr1006   2.436   1_545  S
O369        H386   0.990       .  S
O369       H1713   0.991       .  S
O370        H387   0.990       .  S
O371        H391   0.990       .  S
O371        H400   0.989       .  S
O372        C373   1.277       .  A
C373        C617   1.432       .  S
O374      Zr1661   2.444   1_455  S
O374        H393   0.992       .  S
O374        H397   0.990       .  S
O375        H389   0.991       .  S
O375        H396   0.990       .  S
O376      Zr1005   2.415       .  S
O376        C380   1.279   1_545  A
O377       C1036   1.282       .  A
O378        H388   0.990       .  S
O379      Zr1664   2.437   1_455  S
O379        H392   0.989       .  S
C380       O1033   1.283       .  A
C380        C624   1.427       .  S
H401       O1681   0.991       .  S
Zr403       O404   2.441       .  S
Zr403       O405   2.461       .  S
Zr403       O406   2.460       .  S
Zr403       O409   2.453       .  S
Zr403       O411   2.378       .  S
Zr403       O412   2.387       .  S
Zr403       O413   2.416       .  S
Zr403       O414   2.403       .  S
O404        H460   0.991       .  S
O404        H468   0.990       .  S
O405        C425   1.287       .  A
O406        C427   1.286       .  A
O407      Zr1729   2.419       .  S
O407        C426   1.281       .  A
O408       Zr416   2.426       .  S
O408        C427   1.281       .  A
O409        C426   1.287       .  A
O410       Zr418   2.401       .  S
O410        C425   1.275       .  A
O411       Zr416   2.398       .  S
O411       Zr418   2.385       .  S
O412      Zr1729   2.399       .  S
O412       Zr418   2.375       .  S
O412        H447   0.966       .  S
O413       Zr416   2.400       .  S
O413       Zr433   2.396       .  S
O413        H450   0.965       .  S
O414      Zr1729   2.389       .  S
O414       Zr433   2.385       .  S
Zr415       O440   2.442       .  S
Zr415       O434   2.457       .  S
Zr415       O442   2.456       .  S
Zr415      O1742   2.465   1_455  S
Zr415       O421   2.405       .  S
Zr415      O1734   2.411   1_455  S
Zr415      O1735   2.385   1_455  S
Zr415      O1736   2.387   1_455  S
Zr416       O435   2.436       .  S
Zr416       O428   2.435       .  S
Zr416       O429   2.422       .  S
Zr416       O422   2.401       .  S
Zr416       O423   2.399       .  S
Zr417       O419   2.436       .  S
Zr417       O441   2.439       .  S
Zr417      O1719   2.421   1_455  S
Zr417       O443   2.417       .  S
Zr417      O1724   2.399   1_455  S
Zr417      O1726   2.386   1_455  S
Zr417       O421   2.393       .  S
Zr417      O1736   2.396   1_455  S
Zr418      O1756   2.436       .  S
Zr418      O1757   2.435       .  S
Zr418       O420   2.437       .  S
Zr418      O1733   2.391       .  S
Zr418       O422   2.378       .  S
O419        H456   0.991       .  S
O420        H451   0.990       .  S
O420        H465   0.990       .  S
O421      Zr1730   2.386   1_455  S
O422      Zr1727   2.413       .  S
O422        H448   0.964       .  S
O423      Zr1727   2.384       .  S
O423       Zr433   2.385       .  S
O424      Zr1727   2.386       .  S
O424      Zr1729   2.396       .  S
O424       Zr433   2.382       .  S
O424       H1761   0.966       .  S
C425        C636   1.439       .  S
C426        C652   1.435       .  S
C427        C644   1.441       .  S
O428        H464   0.990       .  S
O429        C431   1.281       .  A
O430      Zr1727   2.464       .  S
O430        C431   1.289       .  A
C431        C620   1.437       .  S
O432       Zr433   2.440       .  S
O432        H461   0.990       .  S
Zr433       O436   2.437       .  S
Zr433       O437   2.440       .  S
Zr433       O438   2.413       .  S
O434       C1751   1.286   1_455  A
O435        H452   0.991       .  S
O435        H467   0.990       .  S
O436        H453   0.990       .  S
O437        H457   0.990       .  S
O437        H466   0.990       .  S
O438        C439   1.278       .  A
C439       O1746   1.286       .  A
C439        C614   1.441       .  S
O440        H459   0.990       .  S
O440        H463   0.991       .  S
O441        H455   0.991       .  S
O441        H462   0.989       .  S
O442        C446   1.286       .  A
O443        C446   1.280       .  A
O444      Zr1730   2.436   1_455  S
O444        H454   0.990       .  S
O445      Zr1730   2.436   1_455  S
O445        H458   0.990       .  S
C446        C601   1.438       .  S
H449       O1736   0.965   1_455  S
Zr469       O470   2.445       .  S
Zr469       O471   2.440       .  S
Zr469       O472   2.426       .  S
Zr469       O475   2.405       .  S
Zr469       O477   2.379       .  S
Zr469       O479   2.405       .  S
O470        H526   0.990       .  S
O470        H534   0.992       .  S
O471        C491   1.283       .  A
O472        C493   1.279       .  A
O473       Zr483   2.452       .  S
O473        C492   1.286       .  A
O474       Zr482   2.430       .  S
O474        C493   1.282       .  A
O476       Zr484   2.407       .  S
O477       Zr482   2.407       .  S
O478       Zr483   2.391       .  S
O478       Zr484   2.381       .  S
O478        H513   0.966       .  S
O479       Zr482   2.407       .  S
O479        H516   0.965       .  S
O480       Zr483   2.383       .  S
O480       Zr499   2.390       .  S
Zr481       O506   2.444       .  S
Zr481       O500   2.437       .  S
Zr481       O508   2.419       .  S
Zr481       O496   2.420       .  S
Zr481       O487   2.392       .  S
Zr481       O488   2.410       .  S
Zr481       O489   2.370       .  S
Zr481       O490   2.385       .  S
Zr482       O501   2.436       .  S
Zr482       O494   2.434       .  S
Zr482       O495   2.447       .  S
Zr483       O485   2.436       .  S
Zr483       O507   2.438       .  S
Zr483       O509   2.433       .  S
Zr483       O487   2.391       .  S
Zr483       O490   2.402       .  S
Zr484       O510   2.436       .  S
Zr484       O511   2.437       .  S
Zr484       O486   2.438       .  S
Zr484       O487   2.381       .  S
Zr484       O488   2.388       .  S
O485        H522   0.990       .  S
O486        H517   0.990       .  S
O488        H514   0.964       .  S
O489       Zr499   2.381       .  S
O490       Zr499   2.386       .  S
O490        H515   0.965       .  S
C491        C627   1.433       .  S
C492        C638   1.433       .  S
C493        C646   1.426       .  S
O494        H530   0.991       .  S
O496        C497   1.278       .  A
C497        C615   1.433       .  S
O498        H527   0.990       .  S
Zr499       O503   2.441       .  S
Zr499       O504   2.407       .  S
O500        C505   1.282       .  A
O501        H518   0.989       .  S
O501        H533   0.991       .  S
O502        H519   0.991       .  S
O503        H523   0.990       .  S
O503        H532   0.990       .  S
O504        C505   1.276       .  A
C505        C607   1.430       .  S
O506        H525   0.991       .  S
O506        H529   0.990       .  S
O507        H521   0.990       .  S
O507        H528   0.990       .  S
O508        C512   1.280       .  A
O509        C512   1.283       .  A
O510        H520   0.990       .  S
O511        H524   0.990       .  S
C512        C604   1.426       .  S
Zr535       O536   2.441       .  S
Zr535       O537   2.457       .  S
Zr535       O538   2.461       .  S
Zr535       O541   2.456       .  S
Zr535       O543   2.381       .  S
Zr535       O544   2.388       .  S
Zr535       O545   2.415       .  S
Zr535       O546   2.401       .  S
O536        H592   0.991       .  S
O536        H600   0.989       .  S
O537        C557   1.286       .  A
O538        C559   1.287       .  A
O539       Zr549   2.414       .  S
O539        C558   1.280       .  A
O540      Zr1204   2.422       .  S
O540        C559   1.280       .  A
O541        C558   1.288       .  A
O542       Zr550   2.405       .  S
O542        C557   1.276       .  A
O543      Zr1204   2.401       .  S
O543       Zr550   2.383       .  S
O544       Zr549   2.400       .  S
O544       Zr550   2.376       .  S
O544        H579   0.966       .  S
O545      Zr1204   2.402       .  S
O545       Zr565   2.394       .  S
O545        H582   0.965       .  S
O546       Zr549   2.389       .  S
O546       Zr565   2.384       .  S
Zr547       O572   2.442       .  S
Zr547       O566   2.463       .  S
Zr547       O574   2.451       .  S
Zr547       O562   2.461       .  S
Zr547      O1209   2.408   1_545  S
Zr547       O554   2.413       .  S
Zr547       O555   2.380       .  S
Zr547      O1212   2.386   1_545  S
Zr548       O567   2.434       .  S
Zr548       O560   2.435       .  S
Zr548      O1196   2.421   1_545  S
Zr548       O561   2.420       .  S
Zr548      O1199   2.398   1_545  S
Zr548      O1201   2.401   1_545  S
Zr548       O554   2.396       .  S
Zr548       O555   2.395       .  S
Zr549       O551   2.436       .  S
Zr549       O573   2.437       .  S
Zr549       O575   2.419       .  S
Zr549       O553   2.393       .  S
Zr549       O556   2.394       .  S
Zr550       O576   2.435       .  S
Zr550      O1233   2.435       .  S
Zr550      O1208   2.437       .  S
Zr550       O553   2.394       .  S
Zr550      O1210   2.377       .  S
O551        H588   0.990       .  S
O552      Zr1206   2.436       .  S
O552        H583   0.991       .  S
O552        H597   0.990       .  S
O553      Zr1203   2.408       .  S
O554      Zr1206   2.381       .  S
O554        H580   0.964       .  S
O555      Zr1221   2.386   1_545  S
O556      Zr1203   2.384       .  S
O556       Zr565   2.382       .  S
O556        H581   0.966       .  S
C557        C632   1.439       .  S
C558        C647   1.433       .  S
C559        C656   1.439       .  S
O560        H596   0.990       .  S
O561        C563   1.281       .  A
O562        C563   1.288       .  A
C563        C606   1.436       .  S
O564       Zr565   2.439       .  S
O564        H593   0.991       .  S
Zr565       O568   2.437       .  S
Zr565       O569   2.441       .  S
Zr565       O570   2.409       .  S
Zr565      O1211   2.385       .  S
O566        C571   1.287   1_545  A
O567        H584   0.989       .  S
O567        H599   0.990       .  S
O568        H585   0.990       .  S
O569        H589   0.990       .  S
O569        H598   0.990       .  S
O570       C1227   1.277       .  A
C571       O1226   1.276       .  A
C571        C609   1.440   1_565  S
O572        H591   0.990       .  S
O572        H595   0.991       .  S
O573        H587   0.990       .  S
O573        H594   0.990       .  S
O574       C1234   1.285   1_545  A
O575        C578   1.280       .  A
O576        H586   0.990       .  S
O577      Zr1206   2.435       .  S
O577        H590   0.991       .  S
C578       O1230   1.286       .  A
C578        C621   1.439       .  S
C601        C602   1.208       .  T
C603        C604   1.202       .  T
C605        C606   1.208       .  T
C607        C608   1.204       .  T
C609        C610   1.210       .  T
C611       C1021   1.432       .  S
C611        C612   1.205       .  T
C613       C1926   1.210       .  T
C614       C1925   1.211       .  T
C615        C616   1.206       .  T
C617        C618   1.205       .  T
C618       C1646   1.463       .  S
C619        C620   1.208       .  T
C621       C1278   1.209       .  T
C622       C1645   1.470   1_465  S
C622       C1277   1.208       .  T
C623        C624   1.202   1_545  T
C625        C626   1.208       .  T
C626        C991   1.467       .  S
C627        C628   1.205       .  T
C631        C632   1.210       .  T
C633        C634   1.208       .  T
C634       C1646   1.467       .  S
C635        C636   1.209       .  T
C639        C640   1.204       .  T
C641        C642   1.211       .  T
C643        C644   1.210       .  T
C645        C646   1.203       .  T
C647        C648   1.206       .  T
C649        C989   1.473       .  S
C649        C650   1.212       .  T
C651        C652   1.207       .  T
C653        C654   1.203       .  T
C655        C656   1.209       .  T
C657        C978   1.473       .  S
C657        C979   1.464       .  S
C657        C982   1.460       .  S
C657        C983   1.471       .  S
C658        C970   1.474       .  S
C658        C971   1.473       .  S
C658        C973   1.461       .  S
C658        C976   1.464       .  S
C659       C1289   1.465       .  S
C659        C963   1.468       .  S
C659        C965   1.464       .  S
C659        C967   1.461       .  S
C660       C1281   1.470       .  S
C660        C956   1.463       .  S
C660        C958   1.466       .  S
C660        C959   1.471       .  S
C661        C947   1.464       .  S
C661       C2262   1.469       .  S
C661        C951   1.456       .  S
C662        C941   1.468       .  S
C662        C944   1.465   1_655  S
C662       C2258   1.461       .  S
C662       C2274   1.467       .  S
C663        C936   1.459       .  S
C663        C938   1.472       .  S
C663        C940   1.464       .  S
C664        C930   1.472       .  S
C664        C931   1.456       .  S
C664        C933   1.468       .  S
C664        C969   1.473       .  S
Zr665       O666   2.445       .  S
Zr665       O667   2.437       .  S
Zr665       O668   2.428       .  S
Zr665       O671   2.406       .  S
Zr665       O673   2.380       .  S
Zr665      O1002   2.377       .  S
Zr665       O675   2.405       .  S
Zr665      O1004   2.404       .  S
O666        H722   0.990       .  S
O666        H730   0.991       .  S
O667        C687   1.282       .  A
O668        C689   1.279       .  A
O669       Zr679   2.450       .  S
O669        C688   1.286       .  A
O670      Zr1990   2.432       .  S
O670        C689   1.282       .  A
O671       C1016   1.277       .  A
O672       Zr680   2.409       .  S
O672       C1015   1.277       .  A
O673      Zr1990   2.407       .  S
O673      Zr1008   2.387       .  S
O674       Zr993   2.378   1_554  S
O674       Zr679   2.392       .  S
O674       Zr680   2.382       .  S
O674        H709   0.966       .  S
O675      Zr1990   2.405       .  S
O675        H712   0.963   1_565  S
O676       Zr993   2.404   1_554  S
O676       Zr679   2.388       .  S
Zr677      O2014   2.443       .  S
Zr677      O1348   2.420       .  S
Zr677       O683   2.394   1_545  S
Zr677      O1996   2.408   1_545  S
Zr678       O690   2.435       .  S
Zr678      O1982   2.428   1_455  S
Zr678       O691   2.447       .  S
Zr678      O1985   2.407   1_455  S
Zr678      O1987   2.407   1_455  S
Zr678      O1012   2.400       .  S
Zr678      O1669   2.393   1_465  S
Zr679       O703   2.438       .  S
Zr679       O705   2.431       .  S
Zr679       O683   2.392       .  S
Zr680       O706   2.435       .  S
Zr680      O2019   2.436       .  S
Zr680      O1994   2.438       .  S
Zr680      O1001   2.384   1_554  S
Zr680       O683   2.384       .  S
Zr680      O1996   2.384       .  S
O681        H718   0.990       .  S
O682      Zr1992   2.439   1_455  S
O682        H713   0.989       .  S
O682       H1055   0.991   1_554  S
O684      Zr1989   2.406   1_465  S
O684      Zr1006   2.402   1_554  S
O684      Zr1992   2.387   1_455  S
O684        H710   0.965       .  S
O685      Zr1662   2.389   1_554  S
O685       Zr695   2.381   1_554  S
O686       Zr695   2.384   1_554  S
O686        H711   0.965       .  S
C687       O1000   1.276       .  A
C687        C968   1.429       .  S
C688        O999   1.277   1_554  A
C688        C957   1.433       .  S
C689        C981   1.427       .  S
O690        H726   0.990       .  S
O691       C1021   1.285   1_565  A
O692      Zr1333   2.420   1_455  S
C693       O1019   1.285   1_544  A
O694      Zr1023   2.440       .  S
O694        H723   0.990       .  S
Zr695      O1022   2.441       .  S
Zr695      O1026   2.438       .  S
Zr695       O699   2.440   1_556  S
Zr695       O700   2.409   1_556  S
O696        C701   1.281       .  A
O697        H714   0.990       .  S
O697       H2041   0.990       .  S
O698      Zr1023   2.437       .  S
O698        H715   0.990       .  S
O699        H719   0.990       .  S
O699        H728   0.989       .  S
O700        C701   1.277       .  A
C701        C945   1.430       .  S
O702      Zr1989   2.443   1_455  S
O702        H721   0.991       .  S
O702        H725   0.990       .  S
O703        H717   0.991       .  S
O703        H724   0.989       .  S
O704        C708   1.279       .  A
O706        H716   0.990       .  S
O707      Zr1992   2.436   1_455  S
O707        H720   0.990       .  S
C708        C952   1.424       .  S
H727       O1010   0.990       .  S
H729       O2009   0.990       .  S
Zr731       O732   2.441       .  S
Zr731       O733   2.454       .  S
Zr731       O734   2.461       .  S
Zr731       O737   2.453       .  S
Zr731       O739   2.379       .  S
Zr731       O740   2.391       .  S
Zr731       O741   2.414       .  S
Zr731       O742   2.402       .  S
O732        H788   0.991       .  S
O732        H796   0.990       .  S
O733        C753   1.285       .  A
O734        C755   1.287       .  A
O735      Zr2057   2.415       .  S
O735        C754   1.280       .  A
O736       Zr744   2.424       .  S
O736        C755   1.280       .  A
O737        C754   1.287       .  A
O738       Zr746   2.402       .  S
O738        C753   1.275       .  A
O739       Zr744   2.397       .  S
O739       Zr746   2.387       .  S
O740      Zr2057   2.400       .  S
O740       Zr746   2.375       .  S
O740        H775   0.966       .  S
O741       Zr744   2.399       .  S
O741       Zr761   2.394       .  S
O741        H778   0.965       .  S
O742      Zr2057   2.388       .  S
O742       Zr761   2.385       .  S
Zr743       O768   2.441       .  S
Zr743       O762   2.453       .  S
Zr743       O770   2.456       .  S
Zr743      O2070   2.458   1_455  S
Zr743       O749   2.405       .  S
Zr743      O2062   2.412   1_455  S
Zr743      O2063   2.385   1_455  S
Zr743      O2064   2.386   1_455  S
Zr744       O763   2.436       .  S
Zr744       O756   2.434       .  S
Zr744       O757   2.414       .  S
Zr744       O750   2.403       .  S
Zr744       O751   2.397       .  S
Zr745       O747   2.436       .  S
Zr745       O769   2.439       .  S
Zr745      O2047   2.417   1_455  S
Zr745       O771   2.421       .  S
Zr745      O2052   2.398   1_455  S
Zr745      O2054   2.389   1_455  S
Zr745       O749   2.388       .  S
Zr745      O2064   2.395   1_455  S
Zr746      O2084   2.435       .  S
Zr746      O2085   2.436       .  S
Zr746       O748   2.438       .  S
Zr746      O2061   2.391       .  S
Zr746       O750   2.379       .  S
O747        H784   0.990       .  S
O748        H779   0.991       .  S
O748        H793   0.990       .  S
O749      Zr2058   2.388   1_455  S
O750      Zr2055   2.415       .  S
O750        H776   0.964       .  S
O751      Zr2055   2.383       .  S
O751       Zr761   2.384       .  S
O752      Zr2055   2.386       .  S
O752      Zr2057   2.394       .  S
O752       Zr761   2.380       .  S
O752       H2089   0.966       .  S
C753        C964   1.436       .  S
C754        C980   1.434       .  S
C755        C972   1.441       .  S
O756        H792   0.989       .  S
O757        C759   1.279       .  A
O758      Zr2055   2.461       .  S
O758        C759   1.289       .  A
C759        C948   1.433       .  S
O760       Zr761   2.438       .  S
O760        H789   0.990       .  S
Zr761       O764   2.438       .  S
Zr761       O765   2.440       .  S
Zr761       O766   2.410       .  S
O762       C2079   1.285   1_455  A
O763        H780   0.991       .  S
O763        H795   0.990       .  S
O764        H781   0.991       .  S
O765        H785   0.990       .  S
O765        H794   0.990       .  S
O766        C767   1.277       .  A
C767       O2074   1.286       .  A
C767        C942   1.438       .  S
O768        H787   0.990       .  S
O768        H791   0.991       .  S
O769        H783   0.990       .  S
O769        H790   0.990       .  S
O770        C774   1.286       .  A
O771        C774   1.281       .  A
O772      Zr2058   2.435   1_455  S
O772        H782   0.991       .  S
O773      Zr2058   2.436   1_455  S
O773        H786   0.991       .  S
C774        C929   1.440       .  S
H777       O2064   0.966   1_455  S
Zr797       O798   2.445       .  S
Zr797       O799   2.438       .  S
Zr797       O800   2.424       .  S
Zr797       O803   2.405       .  S
Zr797       O805   2.380       .  S
Zr797      O1134   2.379       .  S
Zr797       O807   2.406       .  S
Zr797      O1136   2.401       .  S
O798        H854   0.990       .  S
O798        H862   0.991       .  S
O799        C819   1.282       .  A
O800        C821   1.279       .  A
O801       Zr811   2.444       .  S
O801        C820   1.285       .  A
O802       Zr810   2.433       .  S
O802        C821   1.283       .  A
O803       C1148   1.277       .  A
O804       Zr812   2.409       .  S
O804       C1147   1.277   1_554  A
O805       Zr810   2.409       .  S
O805      Zr1140   2.384       .  S
O806      Zr1125   2.378   1_554  S
O806       Zr811   2.392       .  S
O806       Zr812   2.378       .  S
O806        H841   0.965       .  S
O807       Zr810   2.407       .  S
O807      Zr1155   2.384       .  S
O807        H844   0.964       .  S
O808      Zr1125   2.403   1_554  S
O808       Zr811   2.386       .  S
O808       Zr827   2.388   1_554  S
Zr809       O834   2.444       .  S
Zr809       O828   2.433       .  S
Zr809       O836   2.417       .  S
Zr809       O824   2.420       .  S
Zr809       O815   2.393       .  S
Zr809       O816   2.411       .  S
Zr809       O817   2.371       .  S
Zr809       O818   2.384       .  S
Zr810       O829   2.436       .  S
Zr810       O822   2.435       .  S
Zr810       O823   2.447       .  S
Zr810      O1144   2.402       .  S
Zr810      O1145   2.392       .  S
Zr811       O813   2.437       .  S
Zr811       O835   2.439       .  S
Zr811       O837   2.428       .  S
Zr811       O815   2.389       .  S
Zr811       O818   2.400       .  S
Zr812       O838   2.436       .  S
Zr812       O839   2.437       .  S
Zr812       O814   2.437       .  S
Zr812      O1133   2.384   1_554  S
Zr812       O815   2.384       .  S
Zr812       O816   2.389       .  S
O813        H850   0.990       .  S
O814        H845   0.990       .  S
O814       H1187   0.991   1_554  S
O816      Zr1138   2.403   1_554  S
O816        H842   0.964       .  S
O817      Zr1138   2.392   1_554  S
O817       Zr827   2.384   1_554  S
O818       Zr827   2.386   1_554  S
O818        H843   0.966       .  S
C819       O1132   1.277       .  A
C819        C955   1.431       .  S
C820       O1131   1.277   1_554  A
C820        C966   1.429       .  S
C821        C974   1.427       .  S
O822        H858   0.991       .  S
O823       C1153   1.285       .  A
O824        C825   1.278       .  A
C825       O1151   1.286   1_554  A
C825        C943   1.433       .  S
O826      Zr1155   2.440       .  S
O826        H855   0.989       .  S
Zr827      O1154   2.440       .  S
Zr827      O1158   2.437       .  S
Zr827       O831   2.440   1_556  S
Zr827       O832   2.405   1_556  S
Zr827      O1135   2.385       .  S
O828        C833   1.281       .  A
O829        H846   0.990       .  S
O829        H861   0.990       .  S
O830      Zr1155   2.438       .  S
O830        H847   0.991       .  S
O831        H851   0.991       .  S
O831        H860   0.989       .  S
O832        C833   1.276       .  A
C833        C935   1.427       .  S
O834        H853   0.990       .  S
O834        H857   0.991       .  S
O835        H849   0.990       .  S
O835        H856   0.990       .  S
O836        C840   1.279       .  A
O837        C840   1.282       .  A
O838        H848   0.991       .  S
O839        H852   0.990       .  S
C840        C932   1.423       .  S
H859       O1142   0.990       .  S
Zr863       O864   2.440       .  S
Zr863       O865   2.461       .  S
Zr863       O866   2.456       .  S
Zr863       O869   2.450       .  S
Zr863       O871   2.379       .  S
Zr863       O872   2.388       .  S
Zr863       O873   2.416       .  S
Zr863       O874   2.402       .  S
O864        H920   0.990       .  S
O864        H928   0.990       .  S
O865        C885   1.287       .  A
O866        C887   1.286       .  A
O867       Zr877   2.417       .  S
O867        C886   1.280       .  A
O868        C887   1.281       .  A
O869        C886   1.286       .  A
O870       Zr878   2.405   1_565  S
O870        C885   1.276       .  A
O871       Zr878   2.385   1_565  S
O872       Zr877   2.400       .  S
O872       Zr878   2.378   1_565  S
O872        H907   0.967       .  S
O873       Zr893   2.395       .  S
O873        H910   0.964       .  S
O874       Zr877   2.386       .  S
O874       Zr893   2.388       .  S
Zr875       O900   2.442       .  S
Zr875       O894   2.463       .  S
Zr875       O902   2.453       .  S
Zr875       O890   2.458       .  S
Zr875       O882   2.413       .  S
Zr875       O883   2.384       .  S
Zr876       O895   2.436       .  S
Zr876       O888   2.435       .  S
Zr876       O889   2.422       .  S
Zr876       O882   2.399       .  S
Zr876       O883   2.397       .  S
Zr877       O879   2.435       .  S
Zr877       O901   2.437       .  S
Zr877       O903   2.419       .  S
Zr877       O881   2.394       .  S
Zr877       O884   2.392       .  S
Zr878       O904   2.436   1_545  S
Zr878       O881   2.391   1_545  S
O879        H916   0.990       .  S
O880        H911   0.991       .  S
O880        H925   0.991       .  S
O882        H908   0.964       .  S
O884       Zr893   2.380       .  S
O884        H909   0.966       .  S
C885        C960   1.440       .  S
C886        C975   1.434       .  S
C887        C984   1.438       .  S
O888        H924   0.990       .  S
O889        C891   1.281       .  A
O890        C891   1.288       .  A
C891        C934   1.436       .  S
O892       Zr893   2.439       .  S
O892        H921   0.990       .  S
Zr893       O896   2.436       .  S
Zr893       O897   2.441       .  S
Zr893       O898   2.408       .  S
O894        C899   1.288       .  A
O895        H912   0.990       .  S
O895        H927   0.990       .  S
O896        H913   0.990       .  S
O897        H917   0.991       .  S
O897        H926   0.989       .  S
C899        C937   1.439       .  S
O900        H919   0.990       .  S
O900        H923   0.992       .  S
O901        H915   0.990       .  S
O901        H922   0.990       .  S
O903        C906   1.280       .  A
O904        H914   0.989       .  S
O905        H918   0.991       .  S
C906        C949   1.438       .  S
C929        C930   1.210       .  T
C931        C932   1.200       .  T
C933        C934   1.208       .  T
C935        C936   1.203       .  T
C937        C938   1.210       .  T
C939        C940   1.205       .  T
C941       C2254   1.208       .  T
C942       C2253   1.209       .  T
C943        C944   1.206       .  T
C945        C946   1.204       .  T
C946       C1974   1.461       .  S
C947        C948   1.206       .  T
C950       C1973   1.471   1_455  S
C951        C952   1.201       .  T
C953        C988   1.470   1_554  S
C953        C954   1.209       .  T
C955        C956   1.205       .  T
C957       C1286   1.206       .  T
C958       C1285   1.206       .  T
C959        C960   1.210       .  T
C961        C987   1.464   1_554  S
C961        C962   1.207       .  T
C962       C1974   1.465       .  S
C963        C964   1.208       .  T
C965       C1294   1.205       .  T
C966       C1293   1.204       .  T
C967        C968   1.204       .  T
C969        C970   1.212       .  T
C971        C972   1.210       .  T
C973        C974   1.203       .  T
C975        C976   1.206       .  T
C977        C978   1.211       .  T
C979        C980   1.206       .  T
C981        C982   1.203       .  T
C983        C984   1.209       .  T
C985       C1306   1.473       .  S
C985       C1307   1.463       .  S
C985       C1310   1.459       .  S
C985       C1311   1.471       .  S
C986       C1298   1.475       .  S
C986       C1299   1.475       .  S
C986       C1301   1.462       .  S
C986       C1304   1.466       .  S
C987       C1291   1.469       .  S
C987       C1293   1.463   1_556  S
C987       C1295   1.461       .  S
C988       C1284   1.463       .  S
C988       C1286   1.466   1_556  S
C988       C1287   1.473       .  S
C989       C1275   1.468       .  S
C989       C2590   1.469       .  S
C989       C1279   1.456       .  S
C990       C1269   1.470       .  S
C990       C1272   1.466   1_655  S
C990       C2586   1.462       .  S
C990       C2602   1.466       .  S
C991       C1264   1.458       .  S
C991       C1266   1.473       .  S
C991       C1268   1.467       .  S
C992       C1258   1.472       .  S
C992       C1259   1.457       .  S
C992       C1261   1.468       .  S
C992       C1297   1.474       .  S
Zr993       O994   2.445       .  S
Zr993       O995   2.436       .  S
Zr993       O996   2.424       .  S
Zr993       O999   2.408       .  S
Zr993      O1001   2.379       .  S
Zr993      O1003   2.409       .  S
O994       H1050   0.991       .  S
O994       H1058   0.990       .  S
O995       C1015   1.281   1_556  A
O996       C1017   1.279       .  A
O997      Zr1007   2.452       .  S
O997       C1016   1.287       .  A
O998      Zr2318   2.431       .  S
O998       C1017   1.282       .  A
O1000     Zr1008   2.408       .  S
O1001     Zr2318   2.408       .  S
O1002     Zr1007   2.392       .  S
O1002     Zr1008   2.378       .  S
O1002      H1037   0.965       .  S
O1003     Zr2318   2.409       .  S
O1003      H1040   0.964   1_565  S
O1004     Zr1007   2.387       .  S
Zr1005     O2342   2.443       .  S
Zr1005     O1676   2.423       .  S
Zr1005     O1011   2.393   1_545  S
Zr1005     O2324   2.408   1_545  S
Zr1006     O1018   2.436       .  S
Zr1006     O2310   2.431   1_455  S
Zr1006     O1019   2.447       .  S
Zr1006     O2313   2.407   1_455  S
Zr1006     O2315   2.407   1_455  S
Zr1006     O1341   2.392   1_466  S
Zr1007     O1031   2.439       .  S
Zr1007     O1033   2.434       .  S
Zr1007     O1011   2.392       .  S
Zr1008     O1034   2.436       .  S
Zr1008     O2347   2.436       .  S
Zr1008     O2322   2.438       .  S
Zr1008     O1011   2.382       .  S
Zr1008     O2324   2.391       .  S
O1009      H1046   0.989       .  S
O1010     Zr2320   2.438   1_455  S
O1010      H1041   0.990       .  S
O1012     Zr2317   2.409   1_465  S
O1012     Zr2320   2.387   1_455  S
O1012      H1038   0.964       .  S
O1013     Zr1334   2.391       .  S
O1013     Zr1023   2.381       .  S
O1014     Zr1023   2.382       .  S
O1014      H1039   0.966       .  S
C1015      C1296   1.429   1_554  S
C1016      C1285   1.433       .  S
C1017      C1309   1.425       .  S
O1018      H1054   0.990       .  S
O1020     Zr1661   2.421   1_455  S
O1022      H1051   0.989       .  S
Zr1023     O1027   2.441       .  S
Zr1023     O1028   2.411       .  S
O1024      C1029   1.281       .  A
O1025      H1042   0.990       .  S
O1025      H2369   0.990       .  S
O1026      H1043   0.991       .  S
O1027      H1047   0.990       .  S
O1027      H1056   0.990       .  S
O1028      C1029   1.277       .  A
C1029      C1273   1.430       .  S
O1030     Zr2317   2.444   1_455  S
O1030      H1049   0.990       .  S
O1030      H1053   0.991       .  S
O1031      H1045   0.989       .  S
O1031      H1052   0.991       .  S
O1032      C1036   1.279       .  A
O1034      H1044   0.990       .  S
O1035     Zr2320   2.436   1_455  S
O1035      H1048   0.990       .  S
C1036      C1280   1.423       .  S
H1057      O2337   0.990       .  S
Zr1059     O1060   2.441       .  S
Zr1059     O1061   2.455       .  S
Zr1059     O1062   2.461       .  S
Zr1059     O1065   2.450       .  S
Zr1059     O1067   2.378       .  S
Zr1059     O1068   2.390       .  S
Zr1059     O1069   2.412       .  S
Zr1059     O1070   2.402       .  S
O1060      H1116   0.991       .  S
O1060      H1124   0.990       .  S
O1061      C1081   1.285       .  A
O1062      C1083   1.287       .  A
O1063     Zr2385   2.419       .  S
O1063      C1082   1.280       .  A
O1064     Zr1072   2.427       .  S
O1064      C1083   1.281       .  A
O1065      C1082   1.287       .  A
O1066     Zr1074   2.404       .  S
O1066      C1081   1.276       .  A
O1067     Zr1072   2.399       .  S
O1067     Zr1074   2.387       .  S
O1068     Zr2385   2.401       .  S
O1068     Zr1074   2.376       .  S
O1068      H1103   0.966       .  S
O1069     Zr1072   2.398       .  S
O1069     Zr1089   2.394       .  S
O1069      H1106   0.964       .  S
O1070     Zr2385   2.389       .  S
O1070     Zr1089   2.383       .  S
Zr1071     O1096   2.442       .  S
Zr1071     O1090   2.455       .  S
Zr1071     O1098   2.455       .  S
Zr1071     O2398   2.459   1_455  S
Zr1071     O1077   2.406       .  S
Zr1071     O2390   2.412   1_455  S
Zr1071     O2391   2.386   1_455  S
Zr1071     O2392   2.384   1_455  S
Zr1072     O1091   2.435       .  S
Zr1072     O1084   2.434       .  S
Zr1072     O1085   2.424       .  S
Zr1072     O1078   2.402       .  S
Zr1072     O1079   2.399       .  S
Zr1073     O1075   2.437       .  S
Zr1073     O1097   2.439       .  S
Zr1073     O2375   2.416   1_455  S
Zr1073     O1099   2.422       .  S
Zr1073     O2380   2.402   1_455  S
Zr1073     O2382   2.389   1_455  S
Zr1073     O1077   2.391       .  S
Zr1073     O2392   2.392   1_455  S
Zr1074     O2412   2.436       .  S
Zr1074     O2413   2.436       .  S
Zr1074     O1076   2.438       .  S
Zr1074     O2389   2.389       .  S
Zr1074     O1078   2.380       .  S
O1075      H1112   0.990       .  S
O1076      H1107   0.990       .  S
O1076      H1121   0.990       .  S
O1077     Zr2386   2.390   1_455  S
O1078     Zr2383   2.413       .  S
O1078      H1104   0.964       .  S
O1079     Zr2383   2.384       .  S
O1079     Zr1089   2.388       .  S
O1080     Zr2383   2.387       .  S
O1080     Zr2385   2.397       .  S
O1080     Zr1089   2.381       .  S
O1080      H2417   0.966       .  S
C1081      C1292   1.437       .  S
C1082      C1308   1.432       .  S
C1083      C1300   1.443       .  S
O1084      H1120   0.990       .  S
O1085      C1087   1.281       .  A
O1086     Zr2383   2.458       .  S
O1086      C1087   1.288       .  A
C1087      C1276   1.436       .  S
O1088     Zr1089   2.439       .  S
O1088      H1117   0.990       .  S
Zr1089     O1092   2.437       .  S
Zr1089     O1093   2.441       .  S
Zr1089     O1094   2.413       .  S
O1090      C2407   1.286   1_455  A
O1091      H1108   0.990       .  S
O1091      H1123   0.990       .  S
O1092      H1109   0.989       .  S
O1093      H1113   0.990       .  S
O1093      H1122   0.990       .  S
O1094      C1095   1.278       .  A
C1095      O2402   1.286       .  A
C1095      C1270   1.441       .  S
O1096      H1115   0.991       .  S
O1096      H1119   0.990       .  S
O1097      H1111   0.991       .  S
O1097      H1118   0.989       .  S
O1098      C1102   1.286       .  A
O1099      C1102   1.280       .  A
O1100     Zr2386   2.436   1_455  S
O1100      H1110   0.990       .  S
O1101     Zr2386   2.435   1_455  S
O1101      H1114   0.991       .  S
C1102      C1257   1.440       .  S
H1105      O2392   0.965   1_455  S
Zr1125     O1126   2.445       .  S
Zr1125     O1127   2.441       .  S
Zr1125     O1128   2.426       .  S
Zr1125     O1131   2.404       .  S
Zr1125     O1133   2.380       .  S
Zr1125     O1135   2.410       .  S
O1126      H1182   0.990       .  S
O1126      H1190   0.991       .  S
O1127      C1147   1.283       .  A
O1128      C1149   1.279       .  A
O1129     Zr1139   2.447       .  S
O1129      C1148   1.285       .  A
O1130     Zr1138   2.438       .  S
O1130      C1149   1.283       .  A
O1132     Zr1140   2.410       .  S
O1133     Zr1138   2.410       .  S
O1134     Zr1139   2.392       .  S
O1134     Zr1140   2.380       .  S
O1134      H1169   0.966       .  S
O1135     Zr1138   2.408       .  S
O1135      H1172   0.964       .  S
O1136     Zr1139   2.385       .  S
O1136     Zr1155   2.388       .  S
Zr1137     O1162   2.444       .  S
Zr1137     O1156   2.430       .  S
Zr1137     O1164   2.414       .  S
Zr1137     O1152   2.421       .  S
Zr1137     O1143   2.394       .  S
Zr1137     O1144   2.408       .  S
Zr1137     O1145   2.369       .  S
Zr1137     O1146   2.384       .  S
Zr1138     O1157   2.436       .  S
Zr1138     O1150   2.435       .  S
Zr1138     O1151   2.449       .  S
Zr1139     O1141   2.436       .  S
Zr1139     O1163   2.438       .  S
Zr1139     O1165   2.430       .  S
Zr1139     O1143   2.390       .  S
Zr1139     O1146   2.401       .  S
Zr1140     O1166   2.437       .  S
Zr1140     O1167   2.436       .  S
Zr1140     O1142   2.437       .  S
Zr1140     O1143   2.384       .  S
Zr1140     O1144   2.388       .  S
O1141      H1178   0.991       .  S
O1142      H1173   0.990       .  S
O1144      H1170   0.965       .  S
O1145     Zr1155   2.384       .  S
O1146     Zr1155   2.386       .  S
O1146      H1171   0.966       .  S
C1147      C1283   1.432       .  S
C1148      C1294   1.431       .  S
C1149      C1302   1.429       .  S
O1150      H1186   0.992       .  S
O1152      C1153   1.278       .  A
C1153      C1271   1.433       .  S
O1154      H1183   0.989       .  S
Zr1155     O1159   2.441       .  S
Zr1155     O1160   2.404       .  S
O1156      C1161   1.280       .  A
O1157      H1174   0.990       .  S
O1157      H1189   0.989       .  S
O1158      H1175   0.990       .  S
O1159      H1179   0.990       .  S
O1159      H1188   0.990       .  S
O1160      C1161   1.276       .  A
C1161      C1263   1.426       .  S
O1162      H1181   0.990       .  S
O1162      H1185   0.991       .  S
O1163      H1177   0.991       .  S
O1163      H1184   0.990       .  S
O1164      C1168   1.279       .  A
O1165      C1168   1.282       .  A
O1166      H1176   0.991       .  S
O1167      H1180   0.990       .  S
C1168      C1260   1.424       .  S
Zr1191     O1192   2.441       .  S
Zr1191     O1193   2.457       .  S
Zr1191     O1194   2.460       .  S
Zr1191     O1197   2.452       .  S
Zr1191     O1199   2.378       .  S
Zr1191     O1200   2.391       .  S
Zr1191     O1201   2.413       .  S
Zr1191     O1202   2.402       .  S
O1192      H1248   0.990       .  S
O1192      H1256   0.990       .  S
O1193      C1213   1.286       .  A
O1194      C1215   1.287       .  A
O1195     Zr1205   2.420       .  S
O1195      C1214   1.281       .  A
O1196      C1215   1.280       .  A
O1197      C1214   1.287       .  A
O1198     Zr1206   2.410   1_565  S
O1198      C1213   1.277       .  A
O1199     Zr1206   2.383   1_565  S
O1200     Zr1205   2.399       .  S
O1200     Zr1206   2.376   1_565  S
O1200      H1235   0.966       .  S
O1201     Zr1221   2.396       .  S
O1201      H1238   0.965       .  S
O1202     Zr1205   2.390       .  S
O1202     Zr1221   2.383       .  S
Zr1203     O1228   2.441       .  S
Zr1203     O1222   2.460       .  S
Zr1203     O1230   2.455       .  S
Zr1203     O1218   2.458       .  S
Zr1203     O1210   2.412       .  S
Zr1203     O1211   2.383       .  S
Zr1204     O1223   2.436       .  S
Zr1204     O1216   2.434       .  S
Zr1204     O1217   2.425       .  S
Zr1204     O1210   2.399       .  S
Zr1204     O1211   2.395       .  S
Zr1205     O1207   2.436       .  S
Zr1205     O1229   2.436       .  S
Zr1205     O1231   2.422       .  S
Zr1205     O1209   2.389       .  S
Zr1205     O1212   2.396       .  S
Zr1206     O1232   2.435   1_545  S
Zr1206     O1209   2.392   1_545  S
O1207      H1244   0.991       .  S
O1208      H1239   0.990       .  S
O1208      H1253   0.989       .  S
O1210      H1236   0.963       .  S
O1212     Zr1221   2.382       .  S
O1212      H1237   0.966       .  S
C1213      C1288   1.441       .  S
C1214      C1303   1.435       .  S
C1215      C1312   1.439       .  S
O1216      H1252   0.990       .  S
O1217      C1219   1.281       .  A
O1218      C1219   1.288       .  A
C1219      C1262   1.436       .  S
O1220     Zr1221   2.439       .  S
O1220      H1249   0.991       .  S
Zr1221     O1224   2.438       .  S
Zr1221     O1225   2.440       .  S
Zr1221     O1226   2.406       .  S
O1222      C1227   1.287       .  A
O1223      H1240   0.990       .  S
O1223      H1255   0.989       .  S
O1224      H1241   0.990       .  S
O1225      H1245   0.990       .  S
O1225      H1254   0.990       .  S
C1227      C1265   1.440       .  S
O1228      H1247   0.990       .  S
O1228      H1251   0.990       .  S
O1229      H1243   0.991       .  S
O1229      H1250   0.989       .  S
O1231      C1234   1.280       .  A
O1232      H1242   0.989       .  S
O1233      H1246   0.989       .  S
C1234      C1277   1.438       .  S
C1257      C1258   1.210       .  T
C1259      C1260   1.201       .  T
C1261      C1262   1.208       .  T
C1263      C1264   1.202       .  T
C1265      C1266   1.210       .  T
C1267      C1268   1.207       .  T
C1269      C2582   1.209       .  T
C1270      C2581   1.210       .  T
C1271      C1272   1.206       .  T
C1273      C1274   1.204       .  T
C1274      C2302   1.462       .  S
C1275      C1276   1.208       .  T
C1278      C2301   1.471   1_455  S
C1279      C1280   1.201       .  T
C1281      C1282   1.209       .  T
C1283      C1284   1.205       .  T
C1287      C1288   1.211       .  T
C1289      C1290   1.207       .  T
C1290      C2302   1.466       .  S
C1291      C1292   1.208       .  T
C1295      C1296   1.204       .  T
C1297      C1298   1.212       .  T
C1299      C1300   1.211       .  T
C1301      C1302   1.204       .  T
C1303      C1304   1.207       .  T
C1305      C1306   1.212       .  T
C1307      C1308   1.205       .  T
C1309      C1310   1.202       .  T
C1311      C1312   1.209       .  T
C1313      C1634   1.472       .  S
C1313      C1635   1.465       .  S
C1313      C1638   1.462       .  S
C1313      C1639   1.472       .  S
C1314      C1626   1.476       .  S
C1314      C1627   1.475       .  S
C1314      C1629   1.462       .  S
C1314      C1632   1.465       .  S
C1315      C1945   1.466       .  S
C1315      C1619   1.470       .  S
C1315      C1621   1.465       .  S
C1315      C1623   1.462       .  S
C1316      C1937   1.470       .  S
C1316      C1612   1.464       .  S
C1316      C1614   1.466       .  S
C1316      C1615   1.473       .  S
C1317      C1603   1.466       .  S
C1317      C1607   1.456       .  S
C1317      C2289   1.472   1_545  S
C1318      C1597   1.471       .  S
C1318      C1600   1.467       .  S
C1319      C1592   1.461       .  S
C1319      C1594   1.475       .  S
C1319      C1596   1.465       .  S
C1319      C2266   1.468   1_545  S
C1320      C1586   1.472       .  S
C1320      C1587   1.458       .  S
C1320      C1589   1.468       .  S
C1320      C1625   1.476       .  S
Zr1321     O1322   2.446       .  S
Zr1321     O1323   2.441       .  S
Zr1321     O1324   2.427       .  S
Zr1321     O1327   2.407       .  S
Zr1321     O1329   2.381       .  S
Zr1321     O1658   2.379       .  S
Zr1321     O1331   2.408       .  S
Zr1321     O1660   2.404       .  S
O1322      H1378   0.990       .  S
O1322      H1386   0.991       .  S
O1323      C1343   1.282       .  A
O1324      C1345   1.279       .  A
O1325     Zr1335   2.453       .  S
O1325      C1344   1.286       .  A
O1326      C1345   1.283       .  A
O1327      C1672   1.277       .  A
O1328     Zr1336   2.410       .  S
O1328      C1671   1.277       .  A
O1329     Zr1664   2.386       .  S
O1330     Zr1649   2.378   1_554  S
O1330     Zr1335   2.391       .  S
O1330     Zr1336   2.380       .  S
O1330      H1365   0.965       .  S
O1331     Zr2335   2.386       .  S
O1331      H1368   0.964       .  S
O1332     Zr1649   2.402   1_554  S
O1332     Zr1335   2.385       .  S
O1332     Zr2007   2.391   1_554  S
Zr1333     O2008   2.432       .  S
Zr1333     O2016   2.414       .  S
Zr1333     O1339   2.393       .  S
Zr1333     O1997   2.370       .  S
Zr1333     O1998   2.384       .  S
Zr1334     O2009   2.435       .  S
Zr1334     O1346   2.435       .  S
Zr1334     O1347   2.444       .  S
Zr1334     O1668   2.403       .  S
Zr1335     O1993   2.436       .  S
Zr1335     O1359   2.439       .  S
Zr1335     O1361   2.433       .  S
Zr1335     O1339   2.392       .  S
Zr1335     O1998   2.401       .  S
Zr1336     O1362   2.438       .  S
Zr1336     O1657   2.385   1_554  S
Zr1336     O1339   2.383       .  S
O1337     Zr1991   2.435   1_545  S
O1337      H1374   0.989       .  S
O1338      H1369   0.989       .  S
O1338      H1711   0.991   1_554  S
O1340     Zr1662   2.403   1_554  S
O1340      H1366   0.964       .  S
O1341     Zr1989   2.370       .  S
O1341     Zr1351   2.384   1_554  S
O1342     Zr1989   2.381       .  S
O1342     Zr1991   2.399   1_545  S
O1342     Zr1351   2.380   1_554  S
O1342      H1367   0.965       .  S
C1343      O1656   1.276       .  A
C1343      C1624   1.431       .  S
C1344      O1655   1.277   1_554  A
C1344      C1613   1.433       .  S
C1345      C1637   1.429       .  S
O1346      H1382   0.990       .  S
O1347      C1677   1.285       .  A
O1348      C2005   1.278       .  A
C1349      O1675   1.285   1_554  A
C1349      O2004   1.278       .  A
C1349      C2251   1.431       .  S
O1350     Zr1679   2.441       .  S
O1350      H1379   0.990       .  S
Zr1351     O1678   2.441       .  S
Zr1351     O1682   2.437       .  S
Zr1351     O1355   2.443   1_556  S
Zr1351     O1356   2.411   1_556  S
Zr1351     O2315   2.388   1_545  S
Zr1351     O1988   2.388   1_546  S
O1352     Zr1989   2.434       .  S
O1352      C1357   1.282       .  A
O1353     Zr1990   2.436   1_545  S
O1353      H1370   0.990       .  S
O1354     Zr1679   2.438       .  S
O1354      H1371   0.991       .  S
O1355      H1375   0.989       .  S
O1355      H1384   0.990       .  S
O1356      C1357   1.278       .  A
C1357      C1601   1.430       .  S
O1358      H1377   0.991       .  S
O1358      H1381   0.991       .  S
O1359      H1373   0.990       .  S
O1359      H1380   0.990       .  S
O1360     Zr1989   2.412       .  S
O1360      C1364   1.279   1_545  A
O1361      C2020   1.283       .  A
O1362      H1372   0.990       .  S
O1363      H1376   0.991       .  S
C1364      O2017   1.283       .  A
C1364      C1608   1.424       .  S
H1383      O1666   0.991       .  S
Zr1387     O1388   2.441       .  S
Zr1387     O1389   2.457       .  S
Zr1387     O1390   2.461       .  S
Zr1387     O1393   2.452       .  S
Zr1387     O1395   2.378       .  S
Zr1387     O1396   2.391       .  S
Zr1387     O1397   2.415       .  S
Zr1387     O1398   2.402       .  S
O1388      H1444   0.991       .  S
O1388      H1452   0.989       .  S
O1389      C1409   1.286       .  A
O1390      C1411   1.287       .  A
O1391      C1410   1.280       .  A
O1392     Zr1400   2.430       .  S
O1392      C1411   1.282       .  A
O1393      C1410   1.287       .  A
O1394     Zr1402   2.403       .  S
O1394      C1409   1.275       .  A
O1395     Zr1400   2.399       .  S
O1395     Zr1402   2.386       .  S
O1396     Zr1402   2.378       .  S
O1396      H1431   0.966       .  S
O1397     Zr1400   2.398       .  S
O1397     Zr1417   2.395       .  S
O1397      H1434   0.964       .  S
O1398     Zr1417   2.387       .  S
Zr1399     O1424   2.441       .  S
Zr1399     O1418   2.455       .  S
Zr1399     O1426   2.456       .  S
Zr1399     O1405   2.406       .  S
Zr1400     O1419   2.436       .  S
Zr1400     O1412   2.435       .  S
Zr1400     O1413   2.421       .  S
Zr1400     O1406   2.404       .  S
Zr1400     O1407   2.396       .  S
Zr1401     O1403   2.435       .  S
Zr1401     O1425   2.440       .  S
Zr1401     O1427   2.422       .  S
Zr1401     O1405   2.392       .  S
Zr1402     O1404   2.438       .  S
Zr1402     O1406   2.378       .  S
O1403      H1440   0.990       .  S
O1404      H1435   0.991       .  S
O1404      H1449   0.990       .  S
O1406      H1432   0.964       .  S
O1407     Zr1417   2.383       .  S
O1408     Zr1417   2.379       .  S
C1409      C1620   1.438       .  S
C1410      C1636   1.434       .  S
C1411      C1628   1.443       .  S
O1412      H1448   0.990       .  S
O1413      C1415   1.281       .  A
O1414      C1415   1.288       .  A
C1415      C1604   1.435       .  S
O1416     Zr1417   2.439       .  S
O1416      H1445   0.990       .  S
Zr1417     O1420   2.438       .  S
Zr1417     O1421   2.440       .  S
Zr1417     O1422   2.411       .  S
O1419      H1436   0.989       .  S
O1419      H1451   0.990       .  S
O1420      H1437   0.991       .  S
O1421      H1441   0.991       .  S
O1421      H1450   0.990       .  S
O1422      C1423   1.277       .  A
C1423      C1598   1.439       .  S
O1424      H1443   0.991       .  S
O1424      H1447   0.990       .  S
O1425      H1439   0.991       .  S
O1425      H1446   0.989       .  S
O1426      C1430   1.286       .  A
O1427      C1430   1.280       .  A
O1428      H1438   0.990       .  S
O1429      H1442   0.990       .  S
C1430      C1585   1.440       .  S
Zr1453     O1454   2.445       .  S
Zr1453     O1455   2.442       .  S
Zr1453     O1456   2.424       .  S
Zr1453     O1459   2.407       .  S
Zr1453     O1461   2.382       .  S
Zr1453     O1790   2.376       .  S
Zr1453     O1463   2.407       .  S
Zr1453     O1792   2.405       .  S
O1454      H1510   0.990       .  S
O1454      H1518   0.992       .  S
O1455      C1475   1.283       .  A
O1456      C1477   1.279       .  A
O1457     Zr1467   2.450       .  S
O1457      C1476   1.285       .  A
O1458     Zr1466   2.435       .  S
O1458      C1477   1.283       .  A
O1459      C1804   1.277       .  A
O1460     Zr1468   2.409       .  S
O1460      C1803   1.277   1_554  A
O1461     Zr1466   2.410       .  S
O1461     Zr1796   2.384       .  S
O1462     Zr1781   2.380   1_554  S
O1462     Zr1467   2.392       .  S
O1462     Zr1468   2.385       .  S
O1462      H1497   0.966       .  S
O1463     Zr1466   2.406       .  S
O1463     Zr1811   2.387       .  S
O1463      H1500   0.964       .  S
O1464     Zr1781   2.401   1_554  S
O1464     Zr1467   2.383       .  S
O1464     Zr1483   2.392   1_554  S
Zr1465     O1490   2.443       .  S
Zr1465     O1484   2.432       .  S
Zr1465     O1492   2.418       .  S
Zr1465     O1480   2.423       .  S
Zr1465     O1471   2.394       .  S
Zr1465     O1472   2.409       .  S
Zr1465     O1473   2.369   1_554  S
Zr1465     O1474   2.385       .  S
Zr1466     O1485   2.435       .  S
Zr1466     O1478   2.434       .  S
Zr1466     O1479   2.449       .  S
Zr1466     O1800   2.399       .  S
Zr1466     O1801   2.392       .  S
Zr1467     O1469   2.435       .  S
Zr1467     O1491   2.439       .  S
Zr1467     O1493   2.428       .  S
Zr1467     O1471   2.393       .  S
Zr1467     O1474   2.401       .  S
Zr1468     O1494   2.436       .  S
Zr1468     O1495   2.436       .  S
Zr1468     O1470   2.438       .  S
Zr1468     O1789   2.383   1_554  S
Zr1468     O1471   2.383       .  S
Zr1468     O1472   2.385       .  S
O1469      H1506   0.990       .  S
O1470      H1501   0.990       .  S
O1470      H1843   0.990   1_554  S
O1472     Zr1794   2.402   1_554  S
O1472      H1498   0.965       .  S
O1473     Zr1794   2.389       .  S
O1473     Zr1483   2.380       .  S
O1474     Zr1483   2.386   1_554  S
O1474      H1499   0.965       .  S
C1475      O1788   1.277       .  A
C1475      C1611   1.433       .  S
C1476      O1787   1.278   1_554  A
C1476      C1622   1.434       .  S
C1477      C1630   1.428       .  S
O1478      H1514   0.991       .  S
O1479      C1809   1.286       .  A
O1480      C1481   1.279       .  A
C1481      O1807   1.286   1_554  A
C1481      C1599   1.434       .  S
O1482     Zr1811   2.441       .  S
O1482      H1511   0.990       .  S
Zr1483     O1810   2.441       .  S
Zr1483     O1814   2.438       .  S
Zr1483     O1487   2.441   1_556  S
Zr1483     O1488   2.410   1_556  S
Zr1483     O1791   2.384       .  S
O1484      C1489   1.281       .  A
O1485      H1502   0.989       .  S
O1485      H1517   0.991       .  S
O1486     Zr1811   2.438       .  S
O1486      H1503   0.990       .  S
O1487      H1507   0.990       .  S
O1487      H1516   0.990       .  S
O1488      C1489   1.277       .  A
C1489      C1591   1.430       .  S
O1490      H1509   0.990       .  S
O1490      H1513   0.991       .  S
O1491      H1505   0.992       .  S
O1491      H1512   0.989       .  S
O1492      C1496   1.279       .  A
O1493      C1496   1.282       .  A
O1494      H1504   0.989       .  S
O1495      H1508   0.991       .  S
C1496      C1588   1.425       .  S
H1515      O1798   0.989       .  S
Zr1519     O1520   2.440       .  S
Zr1519     O1521   2.458       .  S
Zr1519     O1522   2.460       .  S
Zr1519     O1525   2.455       .  S
Zr1519     O1527   2.379       .  S
Zr1519     O1528   2.390       .  S
Zr1519     O1529   2.414       .  S
Zr1519     O1530   2.401       .  S
O1520      H1576   0.990       .  S
O1520      H1584   0.990       .  S
O1521      C1541   1.286       .  A
O1522      C1543   1.287       .  A
O1523     Zr1533   2.418       .  S
O1523      C1542   1.281       .  A
O1524     Zr2188   2.424       .  S
O1524      C1543   1.281       .  A
O1525      C1542   1.287       .  A
O1526     Zr1534   2.409       .  S
O1526      C1541   1.276       .  A
O1527     Zr2188   2.398       .  S
O1527     Zr1534   2.381       .  S
O1528     Zr1533   2.397       .  S
O1528     Zr1534   2.377       .  S
O1528      H1563   0.966       .  S
O1529     Zr2188   2.405       .  S
O1529     Zr1549   2.392       .  S
O1529      H1566   0.965       .  S
O1530     Zr1533   2.390       .  S
O1530     Zr1549   2.382       .  S
Zr1531     O1556   2.442       .  S
Zr1531     O1550   2.465       .  S
Zr1531     O1558   2.453       .  S
Zr1531     O1546   2.458       .  S
Zr1531     O2193   2.409   1_545  S
Zr1531     O1538   2.413       .  S
Zr1531     O1539   2.383       .  S
Zr1531     O2196   2.384   1_545  S
Zr1532     O1551   2.435       .  S
Zr1532     O1544   2.434       .  S
Zr1532     O2180   2.426   1_545  S
Zr1532     O1545   2.427       .  S
Zr1532     O2183   2.399   1_545  S
Zr1532     O2185   2.399   1_545  S
Zr1532     O1538   2.397       .  S
Zr1532     O1539   2.395       .  S
Zr1533     O1535   2.435       .  S
Zr1533     O1557   2.436       .  S
Zr1533     O1559   2.420       .  S
Zr1533     O1537   2.390       .  S
Zr1533     O1540   2.398       .  S
Zr1534     O1560   2.436       .  S
Zr1534     O2217   2.436       .  S
Zr1534     O2192   2.438       .  S
Zr1534     O1537   2.398       .  S
Zr1534     O2194   2.380       .  S
O1535      H1572   0.989       .  S
O1536     Zr2190   2.437       .  S
O1536      H1567   0.991       .  S
O1536      H1581   0.989       .  S
O1537     Zr2187   2.412       .  S
O1538     Zr2190   2.377       .  S
O1538      H1564   0.964       .  S
O1539     Zr2205   2.386   1_545  S
O1540     Zr2187   2.386       .  S
O1540     Zr1549   2.385       .  S
O1540      H1565   0.966       .  S
C1541      C1616   1.440       .  S
C1542      C1631   1.435       .  S
C1543      C1640   1.440       .  S
O1544      H1580   0.990       .  S
O1545      C1547   1.282       .  A
O1546      C1547   1.288       .  A
C1547      C1590   1.437       .  S
O1548     Zr1549   2.441       .  S
O1548      H1577   0.991       .  S
Zr1549     O1552   2.438       .  S
Zr1549     O1553   2.440       .  S
Zr1549     O1554   2.404       .  S
Zr1549     O2195   2.386       .  S
O1550      C1555   1.288   1_545  A
O1551      H1568   0.989       .  S
O1551      H1583   0.991       .  S
O1552      H1569   0.990       .  S
O1553      H1573   0.990       .  S
O1553      H1582   0.991       .  S
O1554      C2211   1.276       .  A
C1555      O2210   1.277       .  A
C1555      C1593   1.442   1_565  S
O1556      H1575   0.990       .  S
O1556      H1579   0.991       .  S
O1557      H1571   0.990       .  S
O1557      H1578   0.990       .  S
O1558      C2218   1.285   1_545  A
O1559      C1562   1.280       .  A
O1560      H1570   0.991       .  S
O1561     Zr2190   2.436       .  S
O1561      H1574   0.990       .  S
C1562      O2214   1.285       .  A
C1562      C1605   1.437       .  S
C1585      C1586   1.210       .  T
C1587      C1588   1.202       .  T
C1589      C1590   1.208       .  T
C1591      C1592   1.204       .  T
C1593      C1594   1.211       .  T
C1595      C2005   1.433       .  S
C1595      C1596   1.206       .  T
C1599      C1600   1.207       .  T
C1601      C1602   1.204       .  T
C1603      C1604   1.207       .  T
C1605      C2262   1.208       .  T
C1606      C2261   1.209       .  T
C1607      C1608   1.201   1_545  T
C1609      C1644   1.466   1_554  S
C1609      C1610   1.207       .  T
C1610      C1975   1.466       .  S
C1611      C1612   1.206       .  T
C1613      C1942   1.206       .  T
C1614      C1941   1.206       .  T
C1615      C1616   1.210       .  T
C1617      C1643   1.470   1_554  S
C1617      C1618   1.209       .  T
C1619      C1620   1.209       .  T
C1621      C1950   1.205       .  T
C1622      C1949   1.207       .  T
C1623      C1624   1.205       .  T
C1625      C1626   1.213       .  T
C1627      C1628   1.212       .  T
C1629      C1630   1.204       .  T
C1631      C1632   1.207       .  T
C1633      C1973   1.472       .  S
C1633      C1634   1.211       .  T
C1635      C1636   1.206       .  T
C1637      C1638   1.204       .  T
C1639      C1640   1.210       .  T
C1641      C1962   1.474       .  S
C1641      C1963   1.464       .  S
C1641      C1966   1.461       .  S
C1641      C1967   1.474       .  S
C1642      C1954   1.472       .  S
C1642      C1955   1.471       .  S
C1642      C1957   1.461       .  S
C1642      C1960   1.462       .  S
C1643      C1947   1.470       .  S
C1643      C1949   1.466   1_556  S
C1643      C1951   1.461       .  S
C1644      C1940   1.461       .  S
C1644      C1942   1.466   1_556  S
C1644      C1943   1.471       .  S
C1645      C1931   1.468       .  S
C1645      C1935   1.456       .  S
C1645      C2617   1.471   1_545  S
C1646      C1925   1.473       .  S
C1646      C1928   1.467       .  S
C1647      C1920   1.463       .  S
C1647      C1922   1.471       .  S
C1647      C1924   1.465       .  S
C1647      C2594   1.469   1_545  S
C1648      C1914   1.471       .  S
C1648      C1915   1.455       .  S
C1648      C1917   1.468       .  S
C1648      C1953   1.472       .  S
Zr1649     O1650   2.445       .  S
Zr1649     O1651   2.436       .  S
Zr1649     O1652   2.426       .  S
Zr1649     O1655   2.404       .  S
Zr1649     O1657   2.379       .  S
Zr1649     O1659   2.403       .  S
O1650      H1706   0.989       .  S
O1650      H1714   0.992       .  S
O1651      C1671   1.282   1_556  A
O1652      C1673   1.279       .  A
O1653     Zr1663   2.452       .  S
O1653      C1672   1.286       .  A
O1654      C1673   1.282       .  A
O1656     Zr1664   2.407       .  S
O1658     Zr1663   2.392       .  S
O1658     Zr1664   2.381       .  S
O1658      H1693   0.966       .  S
O1659     Zr2007   2.383       .  S
O1659      H1696   0.964       .  S
O1660     Zr1663   2.386       .  S
O1660     Zr2335   2.393       .  S
Zr1661     O2336   2.437       .  S
Zr1661     O2344   2.413       .  S
Zr1661     O1667   2.396       .  S
Zr1661     O2325   2.369       .  S
Zr1661     O2326   2.386       .  S
Zr1662     O2337   2.435       .  S
Zr1662     O1674   2.434       .  S
Zr1662     O1675   2.443       .  S
Zr1663     O2321   2.436       .  S
Zr1663     O1687   2.439       .  S
Zr1663     O1689   2.433       .  S
Zr1663     O1667   2.393       .  S
Zr1663     O2326   2.402       .  S
Zr1664     O1690   2.434       .  S
Zr1664     O1667   2.385       .  S
O1665     Zr2319   2.435   1_545  S
O1665      H1702   0.990       .  S
O1666      H1697   0.990       .  S
O1668      H1694   0.964       .  S
O1669     Zr2317   2.369       .  S
O1669     Zr1679   2.383       .  S
O1670     Zr2317   2.382       .  S
O1670     Zr2319   2.401   1_545  S
O1670     Zr1679   2.384       .  S
O1670      H1695   0.966       .  S
C1671      C1952   1.429   1_554  S
C1672      C1941   1.433       .  S
C1673      C1965   1.427       .  S
O1674      H1710   0.989       .  S
O1676      C2333   1.279       .  A
C1677      O2332   1.278       .  A
C1677      C2579   1.432       .  S
O1678      H1707   0.989       .  S
Zr1679     O1683   2.443       .  S
Zr1679     O1684   2.406       .  S
Zr1679     O1987   2.385   1_545  S
Zr1679     O2316   2.391   1_545  S
O1680     Zr2317   2.434       .  S
O1680      C1685   1.281       .  A
O1681     Zr2318   2.437   1_545  S
O1681      H1698   0.990       .  S
O1682      H1699   0.990       .  S
O1683      H1703   0.989       .  S
O1683      H1712   0.990       .  S
O1684      C1685   1.276       .  A
C1685      C1929   1.430       .  S
O1686      H1705   0.990       .  S
O1686      H1709   0.991       .  S
O1687      H1701   0.990       .  S
O1687      H1708   0.990       .  S
O1688     Zr2317   2.413       .  S
O1688      C1692   1.278   1_545  A
O1689      C2348   1.283       .  A
O1690      H1700   0.989       .  S
O1691      H1704   0.991       .  S
C1692      O2345   1.282       .  A
C1692      C1936   1.423       .  S
Zr1715     O1716   2.440       .  S
Zr1715     O1717   2.461       .  S
Zr1715     O1718   2.460       .  S
Zr1715     O1721   2.447       .  S
Zr1715     O1723   2.378       .  S
Zr1715     O1724   2.389       .  S
Zr1715     O1725   2.414       .  S
Zr1715     O1726   2.403       .  S
O1716      H1772   0.990       .  S
O1716      H1780   0.990       .  S
O1717      C1737   1.287       .  A
O1718      C1739   1.287       .  A
O1719      C1738   1.281       .  A
O1720     Zr1728   2.422       .  S
O1720      C1739   1.280       .  A
O1721      C1738   1.286       .  A
O1722     Zr1730   2.397       .  S
O1722      C1737   1.274       .  A
O1723     Zr1728   2.401       .  S
O1723     Zr1730   2.388       .  S
O1724     Zr1730   2.375       .  S
O1724      H1759   0.966       .  S
O1725     Zr1728   2.396       .  S
O1725     Zr1745   2.397       .  S
O1725      H1762   0.965       .  S
O1726     Zr1745   2.382       .  S
Zr1727     O1752   2.441       .  S
Zr1727     O1746   2.459       .  S
Zr1727     O1754   2.456       .  S
Zr1727     O1733   2.406       .  S
Zr1728     O1747   2.435       .  S
Zr1728     O1740   2.435       .  S
Zr1728     O1741   2.420       .  S
Zr1728     O1734   2.401       .  S
Zr1728     O1735   2.395       .  S
Zr1729     O1731   2.436       .  S
Zr1729     O1753   2.439       .  S
Zr1729     O1755   2.423       .  S
Zr1729     O1733   2.391       .  S
Zr1730     O1732   2.437       .  S
Zr1730     O1734   2.377       .  S
O1731      H1768   0.990       .  S
O1732      H1763   0.990       .  S
O1732      H1777   0.990       .  S
O1734      H1760   0.964       .  S
O1735     Zr1745   2.388       .  S
O1736     Zr1745   2.380       .  S
C1737      C1948   1.438       .  S
C1738      C1964   1.433       .  S
C1739      C1956   1.439       .  S
O1740      H1776   0.990       .  S
O1741      C1743   1.281       .  A
O1742      C1743   1.289       .  A
C1743      C1932   1.437       .  S
O1744     Zr1745   2.439       .  S
O1744      H1773   0.990       .  S
Zr1745     O1748   2.437       .  S
Zr1745     O1749   2.441       .  S
Zr1745     O1750   2.412       .  S
O1747      H1764   0.989       .  S
O1747      H1779   0.990       .  S
O1748      H1765   0.990       .  S
O1749      H1769   0.990       .  S
O1749      H1778   0.990       .  S
O1750      C1751   1.278       .  A
C1751      C1926   1.440       .  S
O1752      H1771   0.991       .  S
O1752      H1775   0.990       .  S
O1753      H1767   0.989       .  S
O1753      H1774   0.990       .  S
O1754      C1758   1.286       .  A
O1755      C1758   1.281       .  A
O1756      H1766   0.990       .  S
O1757      H1770   0.989       .  S
C1758      C1913   1.439       .  S
Zr1781     O1782   2.446       .  S
Zr1781     O1783   2.439       .  S
Zr1781     O1784   2.426       .  S
Zr1781     O1787   2.409       .  S
Zr1781     O1789   2.382       .  S
Zr1781     O1791   2.408       .  S
O1782      H1838   0.990       .  S
O1782      H1846   0.992       .  S
O1783      C1803   1.282       .  A
O1784      C1805   1.279       .  A
O1785     Zr1795   2.447       .  S
O1785      C1804   1.285       .  A
O1786     Zr1794   2.434       .  S
O1786      C1805   1.283       .  A
O1788     Zr1796   2.412       .  S
O1789     Zr1794   2.409       .  S
O1790     Zr1795   2.391       .  S
O1790     Zr1796   2.382       .  S
O1790      H1825   0.965       .  S
O1791     Zr1794   2.407       .  S
O1791      H1828   0.964       .  S
O1792     Zr1795   2.384       .  S
O1792     Zr1811   2.394       .  S
Zr1793     O1818   2.444       .  S
Zr1793     O1812   2.439       .  S
Zr1793     O1820   2.420       .  S
Zr1793     O1808   2.423       .  S
Zr1793     O1799   2.396       .  S
Zr1793     O1800   2.409       .  S
Zr1793     O1801   2.371       .  S
Zr1793     O1802   2.384       .  S
Zr1794     O1813   2.436       .  S
Zr1794     O1806   2.434       .  S
Zr1794     O1807   2.451       .  S
Zr1795     O1797   2.436       .  S
Zr1795     O1819   2.439       .  S
Zr1795     O1821   2.422       .  S
Zr1795     O1799   2.394       .  S
Zr1795     O1802   2.400       .  S
Zr1796     O1822   2.436       .  S
Zr1796     O1823   2.437       .  S
Zr1796     O1798   2.438       .  S
Zr1796     O1799   2.386       .  S
Zr1796     O1800   2.387       .  S
O1797      H1834   0.989       .  S
O1798      H1829   0.991       .  S
O1800      H1826   0.964       .  S
O1801     Zr1811   2.384       .  S
O1802     Zr1811   2.385       .  S
O1802      H1827   0.966       .  S
C1803      C1939   1.429       .  S
C1804      C1950   1.432       .  S
C1805      C1958   1.427       .  S
O1806      H1842   0.989       .  S
O1808      C1809   1.279       .  A
C1809      C1927   1.434       .  S
O1810      H1839   0.989       .  S
Zr1811     O1815   2.443       .  S
Zr1811     O1816   2.410       .  S
O1812      C1817   1.282       .  A
O1813      H1830   0.990       .  S
O1813      H1845   0.990       .  S
O1814      H1831   0.990       .  S
O1815      H1835   0.991       .  S
O1815      H1844   0.990       .  S
O1816      C1817   1.277       .  A
C1817      C1919   1.432       .  S
O1818      H1837   0.991       .  S
O1818      H1841   0.991       .  S
O1819      H1833   0.990       .  S
O1819      H1840   0.990       .  S
O1820      C1824   1.280       .  A
O1821      C1824   1.281       .  A
O1822      H1832   0.990       .  S
O1823      H1836   0.991       .  S
C1824      C1916   1.422       .  S
Zr1847     O1848   2.440       .  S
Zr1847     O1849   2.460       .  S
Zr1847     O1850   2.462       .  S
Zr1847     O1853   2.453       .  S
Zr1847     O1855   2.377       .  S
Zr1847     O1856   2.390       .  S
Zr1847     O1857   2.413       .  S
Zr1847     O1858   2.402       .  S
O1848      H1904   0.991       .  S
O1848      H1912   0.990       .  S
O1849      C1869   1.286       .  A
O1850      C1871   1.287       .  A
O1851     Zr1861   2.412       .  S
O1851      C1870   1.280       .  A
O1852     Zr2516   2.428       .  S
O1852      C1871   1.281       .  A
O1853      C1870   1.287       .  A
O1854     Zr1862   2.403       .  S
O1854      C1869   1.276       .  A
O1855     Zr2516   2.400       .  S
O1855     Zr1862   2.385       .  S
O1856     Zr1861   2.398       .  S
O1856     Zr1862   2.375       .  S
O1856      H1891   0.967       .  S
O1857     Zr2516   2.399       .  S
O1857     Zr1877   2.395       .  S
O1857      H1894   0.965       .  S
O1858     Zr1861   2.389       .  S
O1858     Zr1877   2.383       .  S
Zr1859     O1884   2.441       .  S
Zr1859     O1878   2.462       .  S
Zr1859     O1886   2.456       .  S
Zr1859     O1874   2.457       .  S
Zr1859     O2521   2.407   1_545  S
Zr1859     O1866   2.413       .  S
Zr1859     O1867   2.385       .  S
Zr1859     O2524   2.380   1_545  S
Zr1860     O1879   2.436       .  S
Zr1860     O1872   2.436       .  S
Zr1860     O2508   2.430   1_545  S
Zr1860     O1873   2.426       .  S
Zr1860     O2511   2.399   1_545  S
Zr1860     O2513   2.399   1_545  S
Zr1860     O1866   2.398       .  S
Zr1860     O1867   2.400       .  S
Zr1861     O1863   2.436       .  S
Zr1861     O1885   2.436       .  S
Zr1861     O1887   2.421       .  S
Zr1861     O1865   2.390       .  S
Zr1861     O1868   2.393       .  S
Zr1862     O1888   2.437       .  S
Zr1862     O2545   2.435       .  S
Zr1862     O2520   2.436       .  S
Zr1862     O1865   2.394       .  S
Zr1862     O2522   2.379       .  S
O1863      H1900   0.990       .  S
O1864     Zr2518   2.437       .  S
O1864      H1895   0.990       .  S
O1864      H1909   0.990       .  S
O1865     Zr2515   2.410       .  S
O1866     Zr2518   2.377       .  S
O1866      H1892   0.964       .  S
O1867     Zr2533   2.386   1_545  S
O1868     Zr2515   2.384       .  S
O1868     Zr1877   2.380       .  S
O1868      H1893   0.966       .  S
C1869      C1944   1.439       .  S
C1870      C1959   1.431       .  S
C1871      C1968   1.442       .  S
O1872      H1908   0.990       .  S
O1873      C1875   1.282       .  A
O1874      C1875   1.288       .  A
C1875      C1918   1.437       .  S
O1876     Zr1877   2.439       .  S
O1876      H1905   0.991       .  S
Zr1877     O1880   2.437       .  S
Zr1877     O1881   2.440       .  S
Zr1877     O1882   2.409       .  S
Zr1877     O2523   2.386       .  S
O1878      C1883   1.287   1_545  A
O1879      H1896   0.990       .  S
O1879      H1911   0.991       .  S
O1880      H1897   0.990       .  S
O1881      H1901   0.990       .  S
O1881      H1910   0.990       .  S
O1882      C2539   1.277       .  A
C1883      O2538   1.276       .  A
C1883      C1921   1.439   1_565  S
O1884      H1903   0.990       .  S
O1884      H1907   0.991       .  S
O1885      H1899   0.990       .  S
O1885      H1906   0.990       .  S
O1886      C2546   1.286   1_545  A
O1887      C1890   1.281       .  A
O1888      H1898   0.991       .  S
O1889     Zr2518   2.435       .  S
O1889      H1902   0.991       .  S
C1890      O2542   1.285       .  A
C1890      C1933   1.437       .  S
C1913      C1914   1.209       .  T
C1915      C1916   1.200       .  T
C1917      C1918   1.208       .  T
C1919      C1920   1.205       .  T
C1921      C1922   1.209       .  T
C1923      C2333   1.432       .  S
C1923      C1924   1.205       .  T
C1927      C1928   1.207       .  T
C1929      C1930   1.204       .  T
C1931      C1932   1.208       .  T
C1933      C2590   1.208       .  T
C1934      C2589   1.209       .  T
C1935      C1936   1.201   1_545  T
C1937      C1938   1.210       .  T
C1938      C2303   1.470       .  S
C1939      C1940   1.204       .  T
C1943      C1944   1.209       .  T
C1945      C1946   1.208       .  T
C1947      C1948   1.209       .  T
C1951      C1952   1.204       .  T
C1953      C1954   1.211       .  T
C1955      C1956   1.209       .  T
C1957      C1958   1.203       .  T
C1959      C1960   1.205       .  T
C1961      C2301   1.474       .  S
C1961      C1962   1.212       .  T
C1963      C1964   1.206       .  T
C1965      C1966   1.203       .  T
C1967      C1968   1.211       .  T
C1969      C2290   1.472       .  S
C1969      C2291   1.465       .  S
C1969      C2294   1.459       .  S
C1969      C2295   1.472       .  S
C1970      C2282   1.474       .  S
C1970      C2283   1.472       .  S
C1970      C2285   1.461       .  S
C1970      C2288   1.465       .  S
C1971      C2601   1.466       .  S
C1971      C2275   1.471       .  S
C1971      C2277   1.463       .  S
C1971      C2279   1.460       .  S
C1972      C2593   1.468       .  S
C1972      C2268   1.461       .  S
C1972      C2270   1.466       .  S
C1972      C2271   1.470       .  S
C1973      C2259   1.468       .  S
C1973      C2263   1.458       .  S
C1974      C2253   1.470       .  S
C1974      C2256   1.466       .  S
C1975      C2248   1.461       .  S
C1975      C2250   1.471       .  S
C1975      C2252   1.465       .  S
C1976      C2242   1.471       .  S
C1976      C2243   1.458       .  S
C1976      C2245   1.469       .  S
C1976      C2281   1.473       .  S
Zr1977     O1978   2.446       .  S
Zr1977     O1979   2.438       .  S
Zr1977     O1980   2.428       .  S
Zr1977     O1983   2.407       .  S
Zr1977     O1985   2.379       .  S
Zr1977     O2314   2.381       .  S
Zr1977     O1987   2.407       .  S
Zr1977     O2316   2.402       .  S
O1978      H2034   0.990       .  S
O1978      H2042   0.992       .  S
O1979      C1999   1.282       .  A
O1980      C2001   1.279       .  A
O1981     Zr1991   2.452       .  S
O1981      C2000   1.286       .  A
O1982      C2001   1.281       .  A
O1983      C2328   1.277       .  A
O1984     Zr1992   2.402       .  S
O1984      C2327   1.276       .  A
O1985     Zr2320   2.385       .  S
O1986     Zr2305   2.378   1_554  S
O1986     Zr1991   2.390       .  S
O1986     Zr1992   2.381       .  S
O1986      H2021   0.965       .  S
O1987      H2024   0.964   1_565  S
O1988     Zr2305   2.401   1_554  S
O1988     Zr1991   2.383       .  S
Zr1989     O1995   2.395   1_545  S
Zr1990     O2002   2.435       .  S
Zr1990     O2003   2.442       .  S
Zr1990     O2324   2.402       .  S
Zr1991     O2015   2.439       .  S
Zr1991     O2017   2.429       .  S
Zr1991     O1995   2.394       .  S
Zr1992     O2018   2.435       .  S
Zr1992     O2313   2.385   1_554  S
Zr1992     O1995   2.384       .  S
O1993      H2030   0.990       .  S
O1994      H2025   0.990       .  S
O1994      H2367   0.991   1_554  S
O1996     Zr2318   2.400   1_554  S
O1996      H2022   0.964       .  S
O1997     Zr2007   2.381   1_554  S
O1998     Zr2007   2.384   1_554  S
O1998      H2023   0.965       .  S
C1999      O2312   1.277       .  A
C1999      C2280   1.428       .  S
C2000      O2311   1.277   1_554  A
C2000      C2269   1.433       .  S
C2001      C2293   1.426       .  S
O2002      H2038   0.989       .  S
O2003      C2333   1.284   1_565  A
C2005      O2331   1.286   1_544  A
O2006     Zr2335   2.440       .  S
O2006      H2035   0.990       .  S
Zr2007     O2334   2.440       .  S
Zr2007     O2338   2.438       .  S
Zr2007     O2011   2.441   1_556  S
Zr2007     O2012   2.407   1_556  S
O2008      C2013   1.281       .  A
O2009      H2026   0.990       .  S
O2010     Zr2335   2.438       .  S
O2010      H2027   0.990       .  S
O2011      H2031   0.991       .  S
O2011      H2040   0.989       .  S
O2012      C2013   1.276       .  A
C2013      C2257   1.429       .  S
O2014      H2033   0.991       .  S
O2014      H2037   0.990       .  S
O2015      H2029   0.990       .  S
O2015      H2036   0.990       .  S
O2016      C2020   1.279       .  A
O2018      H2028   0.990       .  S
O2019      H2032   0.991       .  S
C2020      C2264   1.425       .  S
H2039      O2322   0.990       .  S
Zr2043     O2044   2.440       .  S
Zr2043     O2045   2.459       .  S
Zr2043     O2046   2.461       .  S
Zr2043     O2049   2.451       .  S
Zr2043     O2051   2.382       .  S
Zr2043     O2052   2.389       .  S
Zr2043     O2053   2.413       .  S
Zr2043     O2054   2.400       .  S
O2044      H2100   0.989       .  S
O2044      H2108   0.991       .  S
O2045      C2065   1.287       .  A
O2046      C2067   1.287       .  A
O2047      C2066   1.280       .  A
O2048     Zr2056   2.423       .  S
O2048      C2067   1.280       .  A
O2049      C2066   1.287       .  A
O2050     Zr2058   2.405       .  S
O2050      C2065   1.276       .  A
O2051     Zr2056   2.400       .  S
O2051     Zr2058   2.388       .  S
O2052     Zr2058   2.375       .  S
O2052      H2087   0.966       .  S
O2053     Zr2056   2.398       .  S
O2053     Zr2073   2.395       .  S
O2053      H2090   0.965       .  S
O2054     Zr2073   2.385       .  S
Zr2055     O2080   2.442       .  S
Zr2055     O2074   2.456       .  S
Zr2055     O2082   2.456       .  S
Zr2055     O2061   2.408       .  S
Zr2056     O2075   2.436       .  S
Zr2056     O2068   2.434       .  S
Zr2056     O2069   2.423       .  S
Zr2056     O2062   2.398       .  S
Zr2056     O2063   2.396       .  S
Zr2057     O2059   2.436       .  S
Zr2057     O2081   2.437       .  S
Zr2057     O2083   2.422       .  S
Zr2057     O2061   2.393       .  S
Zr2058     O2060   2.436       .  S
Zr2058     O2062   2.377       .  S
O2059      H2096   0.991       .  S
O2060      H2091   0.991       .  S
O2060      H2105   0.988       .  S
O2062      H2088   0.963       .  S
O2063     Zr2073   2.387       .  S
O2064     Zr2073   2.382       .  S
C2065      C2276   1.439       .  S
C2066      C2292   1.434       .  S
C2067      C2284   1.440       .  S
O2068      H2104   0.990       .  S
O2069      C2071   1.281       .  A
O2070      C2071   1.288       .  A
C2071      C2260   1.436       .  S
O2072     Zr2073   2.439       .  S
O2072      H2101   0.991       .  S
Zr2073     O2076   2.438       .  S
Zr2073     O2077   2.440       .  S
Zr2073     O2078   2.409       .  S
O2075      H2092   0.990       .  S
O2075      H2107   0.991       .  S
O2076      H2093   0.990       .  S
O2077      H2097   0.990       .  S
O2077      H2106   0.990       .  S
O2078      C2079   1.277       .  A
C2079      C2254   1.436       .  S
O2080      H2099   0.992       .  S
O2080      H2103   0.989       .  S
O2081      H2095   0.988       .  S
O2081      H2102   0.991       .  S
O2082      C2086   1.286       .  A
O2083      C2086   1.280       .  A
O2084      H2094   0.990       .  S
O2085      H2098   0.990       .  S
C2086      C2241   1.439       .  S
Zr2109     O2110   2.445       .  S
Zr2109     O2111   2.435       .  S
Zr2109     O2112   2.423       .  S
Zr2109     O2115   2.404       .  S
Zr2109     O2117   2.380       .  S
Zr2109     O2446   2.379       .  S
Zr2109     O2119   2.406       .  S
Zr2109     O2448   2.402       .  S
O2110      H2166   0.990       .  S
O2110      H2174   0.991       .  S
O2111      C2131   1.282       .  A
O2112      C2133   1.279       .  A
O2113     Zr2123   2.447       .  S
O2113      C2132   1.285       .  A
O2114     Zr2122   2.436       .  S
O2114      C2133   1.283       .  A
O2115      C2460   1.277       .  A
O2116     Zr2124   2.404       .  S
O2116      C2459   1.276   1_554  A
O2117     Zr2122   2.406       .  S
O2117     Zr2452   2.384       .  S
O2118     Zr2437   2.376   1_554  S
O2118     Zr2123   2.392       .  S
O2118     Zr2124   2.380       .  S
O2118      H2153   0.965       .  S
O2119     Zr2122   2.408       .  S
O2119     Zr2467   2.384       .  S
O2119      H2156   0.965       .  S
O2120     Zr2437   2.404   1_554  S
O2120     Zr2123   2.387       .  S
O2120     Zr2139   2.393   1_554  S
Zr2121     O2146   2.443       .  S
Zr2121     O2140   2.434       .  S
Zr2121     O2148   2.417       .  S
Zr2121     O2136   2.423       .  S
Zr2121     O2127   2.391       .  S
Zr2121     O2128   2.407       .  S
Zr2121     O2129   2.370   1_554  S
Zr2121     O2130   2.384       .  S
Zr2122     O2141   2.436       .  S
Zr2122     O2134   2.434       .  S
Zr2122     O2135   2.449       .  S
Zr2122     O2456   2.400       .  S
Zr2122     O2457   2.393       .  S
Zr2123     O2125   2.436       .  S
Zr2123     O2147   2.438       .  S
Zr2123     O2149   2.429       .  S
Zr2123     O2127   2.391       .  S
Zr2123     O2130   2.401       .  S
Zr2124     O2150   2.434       .  S
Zr2124     O2151   2.435       .  S
Zr2124     O2126   2.439       .  S
Zr2124     O2445   2.382   1_554  S
Zr2124     O2127   2.384       .  S
Zr2124     O2128   2.386       .  S
O2125      H2162   0.990       .  S
O2126      H2157   0.989       .  S
O2126      H2499   0.991   1_554  S
O2128     Zr2450   2.401   1_554  S
O2128      H2154   0.965       .  S
O2129     Zr2450   2.394       .  S
O2129     Zr2139   2.383       .  S
O2130     Zr2139   2.385   1_554  S
O2130      H2155   0.966       .  S
C2131      O2444   1.277       .  A
C2131      C2267   1.430       .  S
C2132      O2443   1.277   1_554  A
C2132      C2278   1.430       .  S
C2133      C2286   1.427       .  S
O2134      H2170   0.991       .  S
O2135      C2465   1.286       .  A
O2136      C2137   1.279       .  A
C2137      O2463   1.286   1_554  A
C2137      C2255   1.433       .  S
O2138     Zr2467   2.441       .  S
O2138      H2167   0.990       .  S
Zr2139     O2466   2.441       .  S
Zr2139     O2470   2.438       .  S
Zr2139     O2143   2.442   1_556  S
Zr2139     O2144   2.408   1_556  S
Zr2139     O2447   2.384       .  S
O2140      C2145   1.281       .  A
O2141      H2158   0.990       .  S
O2141      H2173   0.990       .  S
O2142     Zr2467   2.438       .  S
O2142      H2159   0.990       .  S
O2143      H2163   0.990       .  S
O2143      H2172   0.990       .  S
O2144      C2145   1.277       .  A
C2145      C2247   1.429       .  S
O2146      H2165   0.991       .  S
O2146      H2169   0.989       .  S
O2147      H2161   0.991       .  S
O2147      H2168   0.990       .  S
O2148      C2152   1.279       .  A
O2149      C2152   1.282       .  A
O2150      H2160   0.991       .  S
O2151      H2164   0.989       .  S
C2152      C2244   1.425       .  S
H2171      O2454   0.990       .  S
Zr2175     O2176   2.441       .  S
Zr2175     O2177   2.458       .  S
Zr2175     O2178   2.457       .  S
Zr2175     O2181   2.455       .  S
Zr2175     O2183   2.381       .  S
Zr2175     O2184   2.388       .  S
Zr2175     O2185   2.416       .  S
Zr2175     O2186   2.399       .  S
O2176      H2232   0.990       .  S
O2176      H2240   0.990       .  S
O2177      C2197   1.286       .  A
O2178      C2199   1.286       .  A
O2179     Zr2189   2.416       .  S
O2179      C2198   1.279       .  A
O2180      C2199   1.281       .  A
O2181      C2198   1.287       .  A
O2182     Zr2190   2.405   1_565  S
O2182      C2197   1.276       .  A
O2183     Zr2190   2.386   1_565  S
O2184     Zr2189   2.398       .  S
O2184     Zr2190   2.378   1_565  S
O2184      H2219   0.965       .  S
O2185     Zr2205   2.397       .  S
O2185      H2222   0.965       .  S
O2186     Zr2189   2.387       .  S
O2186     Zr2205   2.381       .  S
Zr2187     O2212   2.442       .  S
Zr2187     O2206   2.462       .  S
Zr2187     O2214   2.450       .  S
Zr2187     O2202   2.460       .  S
Zr2187     O2194   2.413       .  S
Zr2187     O2195   2.382       .  S
Zr2188     O2207   2.436       .  S
Zr2188     O2200   2.434       .  S
Zr2188     O2201   2.425       .  S
Zr2188     O2194   2.397       .  S
Zr2188     O2195   2.398       .  S
Zr2189     O2191   2.436       .  S
Zr2189     O2213   2.439       .  S
Zr2189     O2215   2.420       .  S
Zr2189     O2193   2.392       .  S
Zr2189     O2196   2.397       .  S
Zr2190     O2216   2.435   1_545  S
Zr2190     O2193   2.392   1_545  S
O2191      H2228   0.990       .  S
O2192      H2223   0.990       .  S
O2192      H2237   0.990       .  S
O2194      H2220   0.963       .  S
O2196     Zr2205   2.381       .  S
O2196      H2221   0.966       .  S
C2197      C2272   1.439       .  S
C2198      C2287   1.434       .  S
C2199      C2296   1.440       .  S
O2200      H2236   0.990       .  S
O2201      C2203   1.281       .  A
O2202      C2203   1.288       .  A
C2203      C2246   1.438       .  S
O2204     Zr2205   2.439       .  S
O2204      H2233   0.991       .  S
Zr2205     O2208   2.437       .  S
Zr2205     O2209   2.440       .  S
Zr2205     O2210   2.407       .  S
O2206      C2211   1.287       .  A
O2207      H2224   0.990       .  S
O2207      H2239   0.989       .  S
O2208      H2225   0.990       .  S
O2209      H2229   0.990       .  S
O2209      H2238   0.991       .  S
C2211      C2249   1.439       .  S
O2212      H2231   0.991       .  S
O2212      H2235   0.990       .  S
O2213      H2227   0.989       .  S
O2213      H2234   0.991       .  S
O2215      C2218   1.280       .  A
O2216      H2226   0.990   1_565  S
O2217      H2230   0.990       .  S
C2218      C2261   1.438       .  S
C2241      C2242   1.209       .  T
C2243      C2244   1.201       .  T
C2245      C2246   1.209       .  T
C2247      C2248   1.203       .  T
C2249      C2250   1.209       .  T
C2251      C2252   1.205       .  T
C2255      C2256   1.206       .  T
C2257      C2258   1.204       .  T
C2259      C2260   1.208       .  T
C2263      C2264   1.202       .  T
C2265      C2300   1.468   1_554  S
C2265      C2266   1.209       .  T
C2267      C2268   1.204       .  T
C2269      C2598   1.206       .  T
C2270      C2597   1.206       .  T
C2271      C2272   1.209       .  T
C2273      C2299   1.467   1_554  S
C2273      C2274   1.208       .  T
C2275      C2276   1.209       .  T
C2277      C2606   1.204       .  T
C2278      C2605   1.205       .  T
C2279      C2280   1.203       .  T
C2281      C2282   1.212       .  T
C2283      C2284   1.210       .  T
C2285      C2286   1.203       .  T
C2287      C2288   1.206       .  T
C2289      C2290   1.211       .  T
C2291      C2292   1.206       .  T
C2293      C2294   1.202       .  T
C2295      C2296   1.210       .  T
C2297      C2618   1.472       .  S
C2297      C2619   1.464       .  S
C2297      C2622   1.458       .  S
C2297      C2623   1.471       .  S
C2298      C2610   1.472       .  S
C2298      C2611   1.471       .  S
C2298      C2613   1.461       .  S
C2298      C2616   1.464       .  S
C2299      C2603   1.470       .  S
C2299      C2605   1.463   1_556  S
C2299      C2607   1.460       .  S
C2300      C2596   1.462       .  S
C2300      C2598   1.466   1_556  S
C2300      C2599   1.472       .  S
C2301      C2587   1.468       .  S
C2301      C2591   1.458       .  S
C2302      C2581   1.472       .  S
C2302      C2584   1.466       .  S
C2303      C2576   1.461       .  S
C2303      C2578   1.473       .  S
C2303      C2580   1.465       .  S
C2304      C2570   1.470       .  S
C2304      C2571   1.458       .  S
C2304      C2573   1.470       .  S
C2304      C2609   1.471       .  S
Zr2305     O2306   2.445       .  S
Zr2305     O2307   2.442       .  S
Zr2305     O2308   2.426       .  S
Zr2305     O2311   2.406       .  S
Zr2305     O2313   2.378       .  S
Zr2305     O2315   2.409       .  S
O2306      H2362   0.990       .  S
O2306      H2370   0.992       .  S
O2307      C2327   1.283   1_556  A
O2308      C2329   1.279       .  A
O2309     Zr2319   2.449       .  S
O2309      C2328   1.286       .  A
O2310      C2329   1.281       .  A
O2312     Zr2320   2.408       .  S
O2314     Zr2319   2.391       .  S
O2314     Zr2320   2.382       .  S
O2314      H2349   0.966       .  S
O2315      H2352   0.964   1_565  S
O2316     Zr2319   2.387       .  S
Zr2317     O2323   2.396   1_545  S
Zr2318     O2330   2.434       .  S
Zr2318     O2331   2.450       .  S
Zr2319     O2343   2.439       .  S
Zr2319     O2345   2.428       .  S
Zr2319     O2323   2.395       .  S
Zr2320     O2346   2.436       .  S
Zr2320     O2323   2.387       .  S
O2321      H2358   0.990       .  S
O2322      H2353   0.991       .  S
O2324      H2350   0.965       .  S
O2325     Zr2335   2.380       .  S
O2326     Zr2335   2.385       .  S
O2326      H2351   0.966       .  S
C2327      C2608   1.428   1_554  S
C2328      C2597   1.432       .  S
C2329      C2621   1.426       .  S
O2330      H2366   0.990       .  S
O2334      H2363   0.990       .  S
Zr2335     O2339   2.442       .  S
Zr2335     O2340   2.410       .  S
O2336      C2341   1.282       .  A
O2337      H2354   0.990       .  S
O2338      H2355   0.990       .  S
O2339      H2359   0.990       .  S
O2339      H2368   0.990       .  S
O2340      C2341   1.277       .  A
C2341      C2585   1.431       .  S
O2342      H2361   0.992       .  S
O2342      H2365   0.990       .  S
O2343      H2357   0.991       .  S
O2343      H2364   0.989       .  S
O2344      C2348   1.279       .  A
O2346      H2356   0.990       .  S
O2347      H2360   0.990       .  S
C2348      C2592   1.425       .  S
Zr2371     O2372   2.440       .  S
Zr2371     O2373   2.462       .  S
Zr2371     O2374   2.461       .  S
Zr2371     O2377   2.449       .  S
Zr2371     O2379   2.379       .  S
Zr2371     O2380   2.390       .  S
Zr2371     O2381   2.414       .  S
Zr2371     O2382   2.402       .  S
O2372      H2428   0.990       .  S
O2372      H2436   0.991       .  S
O2373      C2393   1.287       .  A
O2374      C2395   1.287       .  A
O2375      C2394   1.280       .  A
O2376     Zr2384   2.426       .  S
O2376      C2395   1.281       .  A
O2377      C2394   1.287       .  A
O2378     Zr2386   2.403       .  S
O2378      C2393   1.275       .  A
O2379     Zr2384   2.400       .  S
O2379     Zr2386   2.387       .  S
O2380     Zr2386   2.376       .  S
O2380      H2415   0.966       .  S
O2381     Zr2384   2.400       .  S
O2381     Zr2401   2.392       .  S
O2381      H2418   0.965       .  S
O2382     Zr2401   2.386       .  S
Zr2383     O2408   2.442       .  S
Zr2383     O2402   2.457       .  S
Zr2383     O2410   2.450       .  S
Zr2383     O2389   2.405       .  S
Zr2384     O2403   2.436       .  S
Zr2384     O2396   2.435       .  S
Zr2384     O2397   2.425       .  S
Zr2384     O2390   2.399       .  S
Zr2384     O2391   2.399       .  S
Zr2385     O2387   2.436       .  S
Zr2385     O2409   2.439       .  S
Zr2385     O2411   2.425       .  S
Zr2385     O2389   2.391       .  S
Zr2386     O2388   2.438       .  S
Zr2386     O2390   2.376       .  S
O2387      H2424   0.990       .  S
O2388      H2419   0.991       .  S
O2388      H2433   0.990       .  S
O2390      H2416   0.963       .  S
O2391     Zr2401   2.387       .  S
O2392     Zr2401   2.381       .  S
C2393      C2604   1.439       .  S
C2394      C2620   1.433       .  S
C2395      C2612   1.440       .  S
O2396      H2432   0.990       .  S
O2397      C2399   1.282       .  A
O2398      C2399   1.288       .  A
C2399      C2588   1.436       .  S
O2400     Zr2401   2.440       .  S
O2400      H2429   0.991       .  S
Zr2401     O2404   2.437       .  S
Zr2401     O2405   2.440       .  S
Zr2401     O2406   2.410       .  S
O2403      H2420   0.991       .  S
O2403      H2435   0.990       .  S
O2404      H2421   0.989       .  S
O2405      H2425   0.990       .  S
O2405      H2434   0.989       .  S
O2406      C2407   1.277       .  A
C2407      C2582   1.438       .  S
O2408      H2427   0.990       .  S
O2408      H2431   0.991       .  S
O2409      H2423   0.990       .  S
O2409      H2430   0.990       .  S
O2410      C2414   1.285       .  A
O2411      C2414   1.281       .  A
O2412      H2422   0.990       .  S
O2413      H2426   0.990       .  S
C2414      C2569   1.438       .  S
Zr2437     O2438   2.445       .  S
Zr2437     O2439   2.442       .  S
Zr2437     O2440   2.424       .  S
Zr2437     O2443   2.405       .  S
Zr2437     O2445   2.376       .  S
Zr2437     O2447   2.409       .  S
O2438      H2494   0.990       .  S
O2438      H2502   0.991       .  S
O2439      C2459   1.283       .  A
O2440      C2461   1.279       .  A
O2441     Zr2451   2.445       .  S
O2441      C2460   1.285       .  A
O2442     Zr2450   2.436       .  S
O2442      C2461   1.283       .  A
O2444     Zr2452   2.409       .  S
O2445     Zr2450   2.406       .  S
O2446     Zr2451   2.394       .  S
O2446     Zr2452   2.379       .  S
O2446      H2481   0.965       .  S
O2447     Zr2450   2.408       .  S
O2447      H2484   0.964       .  S
O2448     Zr2451   2.388       .  S
O2448     Zr2467   2.389       .  S
Zr2449     O2474   2.444       .  S
Zr2449     O2468   2.436       .  S
Zr2449     O2476   2.418       .  S
Zr2449     O2464   2.419       .  S
Zr2449     O2455   2.390       .  S
Zr2449     O2456   2.409       .  S
Zr2449     O2457   2.371       .  S
Zr2449     O2458   2.383       .  S
Zr2450     O2469   2.437       .  S
Zr2450     O2462   2.435       .  S
Zr2450     O2463   2.449       .  S
Zr2451     O2453   2.436       .  S
Zr2451     O2475   2.438       .  S
Zr2451     O2477   2.431       .  S
Zr2451     O2455   2.390       .  S
Zr2451     O2458   2.400       .  S
Zr2452     O2478   2.435       .  S
Zr2452     O2479   2.435       .  S
Zr2452     O2454   2.438       .  S
Zr2452     O2455   2.383       .  S
Zr2452     O2456   2.389       .  S
O2453      H2490   0.990       .  S
O2454      H2485   0.991       .  S
O2456      H2482   0.965       .  S
O2457     Zr2467   2.385       .  S
O2458     Zr2467   2.387       .  S
O2458      H2483   0.965       .  S
C2459      C2595   1.430       .  S
C2460      C2606   1.429       .  S
C2461      C2614   1.427       .  S
O2462      H2498   0.990       .  S
O2464      C2465   1.278       .  A
C2465      C2583   1.433       .  S
O2466      H2495   0.989       .  S
Zr2467     O2471   2.442       .  S
Zr2467     O2472   2.406       .  S
O2468      C2473   1.282       .  A
O2469      H2486   0.990       .  S
O2469      H2501   0.991       .  S
O2470      H2487   0.990       .  S
O2471      H2491   0.990       .  S
O2471      H2500   0.989       .  S
O2472      C2473   1.277       .  A
C2473      C2575   1.430       .  S
O2474      H2493   0.991       .  S
O2474      H2497   0.990       .  S
O2475      H2489   0.990       .  S
O2475      H2496   0.990       .  S
O2476      C2480   1.279       .  A
O2477      C2480   1.282       .  A
O2478      H2488   0.991       .  S
O2479      H2492   0.990       .  S
C2480      C2572   1.426       .  S
Zr2503     O2504   2.440       .  S
Zr2503     O2505   2.459       .  S
Zr2503     O2506   2.454       .  S
Zr2503     O2509   2.455       .  S
Zr2503     O2511   2.382       .  S
Zr2503     O2512   2.388       .  S
Zr2503     O2513   2.417       .  S
Zr2503     O2514   2.399       .  S
O2504      H2560   0.990       .  S
O2504      H2568   0.990       .  S
O2505      C2525   1.287       .  A
O2506      C2527   1.286       .  A
O2507     Zr2517   2.411       .  S
O2507      C2526   1.279       .  A
O2508      C2527   1.282       .  A
O2509      C2526   1.287       .  A
O2510     Zr2518   2.408   1_565  S
O2510      C2525   1.277       .  A
O2511     Zr2518   2.384   1_565  S
O2512     Zr2517   2.397       .  S
O2512     Zr2518   2.378   1_565  S
O2512      H2547   0.966       .  S
O2513     Zr2533   2.392       .  S
O2513      H2550   0.965       .  S
O2514     Zr2517   2.386       .  S
O2514     Zr2533   2.384       .  S
Zr2515     O2540   2.441       .  S
Zr2515     O2534   2.463       .  S
Zr2515     O2542   2.450       .  S
Zr2515     O2530   2.461       .  S
Zr2515     O2522   2.411       .  S
Zr2515     O2523   2.382       .  S
Zr2516     O2535   2.435       .  S
Zr2516     O2528   2.435       .  S
Zr2516     O2529   2.426       .  S
Zr2516     O2522   2.400       .  S
Zr2516     O2523   2.398       .  S
Zr2517     O2519   2.435       .  S
Zr2517     O2541   2.437       .  S
Zr2517     O2543   2.416       .  S
Zr2517     O2521   2.391       .  S
Zr2517     O2524   2.392       .  S
Zr2518     O2544   2.436   1_545  S
Zr2518     O2521   2.394   1_545  S
O2519      H2556   0.990       .  S
O2520      H2551   0.990       .  S
O2520      H2565   0.990       .  S
O2522      H2548   0.962       .  S
O2524     Zr2533   2.381       .  S
O2524      H2549   0.965       .  S
C2525      C2600   1.440       .  S
C2526      C2615   1.433       .  S
C2527      C2624   1.439       .  S
O2528      H2564   0.990       .  S
O2529      C2531   1.282       .  A
O2530      C2531   1.288       .  A
C2531      C2574   1.438       .  S
O2532     Zr2533   2.438       .  S
O2532      H2561   0.990       .  S
Zr2533     O2536   2.438       .  S
Zr2533     O2537   2.439       .  S
Zr2533     O2538   2.404       .  S
O2534      C2539   1.287       .  A
O2535      H2552   0.989       .  S
O2535      H2567   0.991       .  S
O2536      H2553   0.990       .  S
O2537      H2557   0.991       .  S
O2537      H2566   0.989       .  S
C2539      C2577   1.441       .  S
O2540      H2559   0.990       .  S
O2540      H2563   0.990       .  S
O2541      H2555   0.990       .  S
O2541      H2562   0.990       .  S
O2543      C2546   1.280       .  A
O2544      H2554   0.990       .  S
O2545      H2558   0.990       .  S
C2546      C2589   1.438       .  S
C2569      C2570   1.209       .  T
C2571      C2572   1.202       .  T
C2573      C2574   1.209       .  T
C2575      C2576   1.204       .  T
C2577      C2578   1.210       .  T
C2579      C2580   1.206       .  T
C2583      C2584   1.206       .  T
C2585      C2586   1.204       .  T
C2587      C2588   1.208       .  T
C2591      C2592   1.202       .  T
C2593      C2594   1.209       .  T
C2595      C2596   1.204       .  T
C2599      C2600   1.210       .  T
C2601      C2602   1.208       .  T
C2603      C2604   1.209       .  T
C2607      C2608   1.203       .  T
C2609      C2610   1.211       .  T
C2611      C2612   1.210       .  T
C2613      C2614   1.203       .  T
C2615      C2616   1.205       .  T
C2617      C2618   1.211       .  T
C2619      C2620   1.205       .  T
C2621      C2622   1.202       .  T
C2623      C2624   1.209       .  T
