geometry optimzed in LAMMPS
_audit_creation_date              2020-11-30 
_audit_creation_method            'lammps2cif' 
_symmetry_space_group_name_H-M    'P1' 
_symmetry_Int_Tables_number       1 
_symmetry_cell_setting            triclinic 
loop_ 
_symmetry_equiv_pos_as_xyz 
  x,y,z 
_cell_length_a                    42.306595809443664 
_cell_length_b                    42.045372424683194 
_cell_length_c                    41.97995799454424 
_cell_angle_alpha                 90.18752419306203 
_cell_angle_beta                  90.30820331576166 
_cell_angle_gamma                 89.96987640298897 
loop_ 
_atom_site_label 
_atom_site_type_symbol 
_atom_site_fract_x 
_atom_site_fract_y 
_atom_site_fract_z 
_atom_site_charge 
C1          C  0.36801749  0.36703764  0.00462209     0.03510
C2          C  0.37519666  0.33422323  0.50802104    -0.12640
C3          C  0.35413607  0.31163798  0.49560352     0.01010
C4          C  0.32792316  0.32322908  0.47879369    -0.11170
C5          C  0.31490762  0.35281880  0.98692657     0.03500
C6          C  0.33609735  0.37594414  0.99826148    -0.10590
H7          H  0.39729558  0.32657775  0.51866097     0.09090
H8          H  0.31457970  0.30751710  0.46388328     0.06620
H9          H  0.32806960  0.40019675  0.00131109     0.06470
C10         C  0.36583012  0.22157383  0.49337643     0.03510
C11         C  0.37346558  0.25433430  0.49036200    -0.12640
C12         C  0.35412439  0.27719966  0.50465041     0.01010
C13         C  0.32897602  0.26606535  0.52308233    -0.11170
C14         C  0.31490514  0.23654810  0.01592618     0.03500
C15         C  0.33470492  0.21308997  0.00300653    -0.10590
H16         H  0.39477619  0.26170861  0.47825080     0.09090
H17         H  0.31693653  0.28213158  0.53864484     0.06620
H18         H  0.32616649  0.18891322  0.00122950     0.06470
C19         C  0.22412473  0.22404835  0.02012592     0.03510
C20         C  0.25693528  0.21657422  0.02428425    -0.12640
C21         C  0.27959822  0.23708396  0.01123035     0.01010
C22         C  0.26797744  0.26276805  0.99410040    -0.11170
C23         C  0.23953169  0.27718235  0.00250903     0.03500
C24         C  0.21595215  0.25659143  0.01363642    -0.10590
H25         H  0.26441700  0.19457788  0.03531870     0.09090
H26         H  0.28375480  0.27518845  0.97918385     0.06620
H27         H  0.19203531  0.26538943  0.01543211     0.06470
C28         C  0.22436914  0.36655484  0.98572143     0.03510
C29         C  0.25705575  0.37404434  0.98138894    -0.12640
C30         C  0.27994164  0.35300415  0.99335711     0.01010
C31         C  0.26871509  0.32714903  0.01039762    -0.11170
C32         C  0.23975885  0.31319058  0.00266597     0.03500
C33         C  0.21602832  0.33413949  0.99216452    -0.10590
H34         H  0.26426530  0.39635333  0.97087657     0.09090
H35         H  0.28499370  0.31423976  0.02456334     0.06620
H36         H  0.19187779  0.32584828  0.99057454     0.06470
C37         C  0.36703705  0.05798255  0.32428670     0.03510
C38         C  0.33513008  0.05097417  0.33192408    -0.12640
C39         C  0.31524285  0.03896864  0.30802240     0.01010
C40         C  0.32946465  0.03111459  0.27902548    -0.11170
C41         C  0.35578168  0.04785860  0.26828997     0.03500
C42         C  0.37623574  0.06006510  0.29178056    -0.10590
H43         H  0.32644449  0.05407973  0.35595633     0.09090
H44         H  0.31674821  0.01693119  0.26244006     0.06620
H45         H  0.39905557  0.06961918  0.28526064     0.06470
C46         C  0.22521915  0.03032479  0.32188418     0.03510
C47         C  0.25830979  0.02913448  0.32928415    -0.12640
C48         C  0.27985071  0.04187614  0.30745266     0.01010
C49         C  0.26698873  0.05520458  0.28003928    -0.11170
C50         C  0.23945222  0.04280075  0.26691121     0.03500
C51         C  0.21718006  0.03124888  0.28854891    -0.10590
H52         H  0.26718758  0.01913847  0.35121504     0.09090
H53         H  0.28138209  0.06976731  0.26569503     0.06620
H54         H  0.19460279  0.02362903  0.27926518     0.06470
C55         C  0.22544808  0.05946783  0.17856036     0.03510
C56         C  0.21661885  0.05230083  0.21062550    -0.12640
C57         C  0.23916911  0.03910009  0.23126762     0.01010
C58         C  0.26765062  0.02950323  0.21751480    -0.11170
C59         C  0.28007681  0.04683498  0.19227403     0.03500
C60         C  0.25838766  0.06214045  0.17210947    -0.10590
H61         H  0.19293446  0.05577101  0.21941565     0.09090
H62         H  0.28239407  0.01327422  0.23010231     0.06620
H63         H  0.26685923  0.07457296  0.15131440     0.06470
C64         C  0.36899272  0.03881212  0.17913645     0.03510
C65         C  0.37812232  0.04316240  0.21165517    -0.12640
C66         C  0.35609475  0.05546790  0.23328427     0.01010
C67         C  0.32769006  0.06691853  0.22029147    -0.11170
C68         C  0.31492913  0.05274100  0.19287214     0.03500
C69         C  0.33615357  0.03830790  0.17187199    -0.10590
H70         H  0.40175530  0.03797520  0.22004377     0.09090
H71         H  0.31353566  0.08283298  0.23401673     0.06620
H72         H  0.32748001  0.02823352  0.14972580     0.06470
C73         C  0.03495230  0.22043399  0.31953722     0.03510
C74         C  0.03683387  0.25284118  0.32897331    -0.12640
C75         C  0.04953588  0.27490188  0.30772173     0.01010
C76         C  0.06269872  0.26271933  0.27971292    -0.11170
C77         C  0.05046444  0.23500808  0.26582001     0.03500
C78         C  0.03727849  0.21265141  0.28658921    -0.10590
H79         H  0.02994829  0.26045390  0.35260320     0.09090
H80         H  0.07887682  0.27687050  0.26658109     0.06620
H81         H  0.03058448  0.18933348  0.27785564     0.06470
C82         C  0.05206863  0.36485065  0.32287262     0.03510
C83         C  0.05457590  0.33188909  0.33003217    -0.12640
C84         C  0.04238365  0.30978313  0.30821254     0.01010
C85         C  0.02662758  0.32199138  0.28162899    -0.11170
C86         C  0.03555502  0.35134293  0.26888892     0.03500
C87         C  0.04675675  0.37406362  0.29060032    -0.10590
H88         H  0.06428247  0.32390295  0.35255001     0.09090
H89         H  0.01206479  0.30658374  0.26787476     0.06620
H90         H  0.05017103  0.39829561  0.28274674     0.06470
C91         C  0.06167488  0.22421447  0.17595122     0.03510
C92         C  0.05995013  0.21484525  0.20840526    -0.12640
C93         C  0.04587541  0.23555538  0.23033266     0.01010
C94         C  0.03150135  0.26269346  0.21784931    -0.11170
C95         C  0.04316451  0.27703683  0.19025791     0.03500
C96         C  0.05686139  0.25667120  0.16767879    -0.10590
H97         H  0.06775131  0.19147756  0.21586089     0.09090
H98         H  0.01557173  0.27567160  0.23233171     0.06620
H99         H  0.06236000  0.26526801  0.14406578     0.06470
C100        C  0.03140432  0.36718209  0.17835492     0.03510
C101        C  0.02956166  0.37446595  0.21155945    -0.12640
C102        C  0.04082252  0.35201024  0.23349264     0.01010
C103        C  0.05550274  0.32527699  0.22074427    -0.11170
C104        C  0.04597703  0.31273893  0.19149991     0.03500
C105        C  0.03532475  0.33474846  0.16881377    -0.10590
H106        H  0.02142594  0.39749078  0.21974305     0.09090
H107        H  0.06963291  0.31115526  0.23589610     0.06620
H108        H  0.03179552  0.32725835  0.14436500     0.06470
O109        O  0.45569877  0.49410048  0.00080395    -0.86110
O110        O  0.13555732  0.49339445  0.99672838    -0.86280
O111        O  0.04591922  0.45507468  0.44812765    -0.87950
O112        O  0.04349205  0.45441264  0.05141986    -0.86700
O113        O  0.04533470  0.49308643  0.09010696    -0.86290
O114        O  0.04604365  0.49339670  0.40936368    -0.87660
O115        O  0.09734885  0.45466641  0.99743889    -0.86140
O116        O  0.49390586  0.45546297  0.99978743    -0.85730
Zr117      Zr  0.04587170  0.48099964  0.99986835     2.84310
O118        O  0.07870663  0.01274014  0.03231147    -1.07700
O119        O  0.01331768  0.01277964  0.46761235    -1.08430
C120        C  0.46477011  0.46484556  0.00098221     1.07000
C121        C  0.12641262  0.46397745  0.99550368     1.06940
C122        C  0.04687132  0.46416046  0.41879668     1.09920
C123        C  0.04295985  0.46383786  0.08075511     1.07700
H124        H  0.09046395  0.00039647  0.45438128     0.33260
O125        O  0.07742768  0.01348593  0.46793046    -1.28660
H126        H  0.00123067  0.99985915  0.04516245     0.32930
O127        O  0.01431396  0.01318024  0.03200078    -1.30340
O128        O  0.13503140  0.09815898  0.00250120    -0.86110
O129        O  0.45521221  0.09646181  0.00043979    -0.87600
O130        O  0.09655037  0.04443409  0.40952170    -0.86180
O131        O  0.09779923  0.04746112  0.09015823    -0.86230
O132        O  0.49553007  0.04328812  0.09117299    -0.85940
O133        O  0.49377150  0.04706294  0.40969427    -0.85750
O134        O  0.04202220  0.13584875  0.44835804    -0.86120
O135        O  0.04708064  0.13557291  0.05200330    -0.85580
O136        O  0.04330542  0.09683946  0.40990831    -0.86650
O137        O  0.04791660  0.09678708  0.09054293    -0.85810
O138        O  0.13521070  0.04716280  0.44767575    -0.86200
O139        O  0.45565903  0.04630394  0.44857702    -0.85930
O140        O  0.45702932  0.04266531  0.05254625    -0.85580
O141        O  0.13598810  0.04738280  0.05179086    -0.85980
O142        O  0.09631870  0.13619546  0.00247412    -0.86280
O143        O  0.49346178  0.13502833  0.99980103    -0.87620
Zr144      Zr  0.10974065  0.04566777  0.99974296     2.83100
Zr145      Zr  0.48203051  0.04521644  0.00039233     2.83500
Zr146      Zr  0.04528423  0.04520548  0.43585591     2.84090
Zr147      Zr  0.04635767  0.04505977  0.06416852     2.83360
Zr148      Zr  0.04523430  0.10950144  0.00010162     2.84220
O149        O  0.01356980  0.07778883  0.03299172    -1.08190
O150        O  0.07767971  0.07803751  0.46742989    -1.07690
C151        C  0.12553344  0.12745337  0.00394311     1.06970
C152        C  0.46433577  0.12576404  0.99981288     1.09590
C153        C  0.12581890  0.04573514  0.41831296     1.07140
C154        C  0.12686306  0.04875906  0.08116144     1.07500
C155        C  0.46641075  0.04167331  0.08190086     1.07080
C156        C  0.46483776  0.04748974  0.41931027     1.06640
C157        C  0.04127256  0.12611258  0.41911233     1.07060
C158        C  0.04836907  0.12601745  0.08117985     1.06580
H159        H  0.00006007  0.09026346  0.45512474     0.33250
O160        O  0.01353508  0.07709829  0.46819879    -1.29290
H161        H  0.09046633  0.09047554  0.04504770     0.33280
O162        O  0.07735267  0.07715643  0.03169176    -1.30670
C163        C  0.01607192  0.38992963  0.12554732    -0.11890
C164        C  0.03287654  0.39304326  0.15428949     0.05110
C165        C  0.05269973  0.41995924  0.15877604    -0.07180
C166        C  0.05484482  0.44292945  0.13476523    -0.07920
C167        C  0.03866596  0.43939207  0.10577207    -0.02480
C168        C  0.01848190  0.41284507  0.10143145     0.04340
N169        N  0.99878824  0.40981215  0.07367793     0.66850
H170        H  0.00035839  0.36986145  0.12208727     0.15750
H171        H  0.07047146  0.46308191  0.13825203     0.15460
N172        N  0.07243606  0.42346263  0.18651345     0.74550
O173        O  0.99467802  0.38291355  0.06085867    -0.38900
O174        O  0.98130753  0.43270765  0.06545655    -0.38840
O175        O  0.09089281  0.40127600  0.19461214    -0.39540
O176        O  0.07529188  0.45035997  0.19967600    -0.39610
C177        C  0.08151052  0.16405573  0.11097724    -0.11890
C178        C  0.05151118  0.15059271  0.10586490     0.05110
C179        C  0.02533560  0.16155158  0.12349702    -0.07180
C180        C  0.03013212  0.18597956  0.14576755    -0.07920
C181        C  0.06006642  0.19949758  0.15104462    -0.02480
C182        C  0.08635843  0.18861342  0.13340221     0.04340
N183        N  0.11770899  0.20161478  0.13782096     0.66850
H184        H  0.10123957  0.15535684  0.09706691     0.15750
H185        H  0.51022082  0.19452985  0.15953250     0.15460
N186        N  0.49387273  0.14888378  0.11893300     0.74550
O187        O  0.14135699  0.18772763  0.12590034    -0.38900
O188        O  0.12206031  0.22751897  0.15246553    -0.38840
O189        O  0.48958731  0.12068923  0.10945525    -0.39540
O190        O  0.47003630  0.16532525  0.12642655    -0.39610
C191        C  0.03528305  0.40925784  0.40024411    -0.11890
C192        C  0.04955412  0.43874845  0.39438734     0.05110
C193        C  0.06633650  0.44299759  0.36567799    -0.07180
C194        C  0.06776704  0.41821731  0.34337853    -0.07920
C195        C  0.05260090  0.38912500  0.34867290    -0.02480
C196        C  0.03599510  0.38470897  0.37762510     0.04340
N197        N  0.01796402  0.35647900  0.38373922     0.66850
H198        H  0.02209252  0.40572951  0.42201579     0.15750
H199        H  0.08122032  0.42170520  0.32179216     0.15460
N200        N  0.08290786  0.47183203  0.35898251     0.74550
O201        O  0.01915413  0.34368333  0.41088732    -0.38900
O202        O  0.99703629  0.34754176  0.36412144    -0.38840
O203        O  0.10310211  0.48227446  0.37860217    -0.39540
O204        O  0.08010613  0.98381423  0.33095294    -0.39610
C205        C  0.01405988  0.19715334  0.36997307    -0.11890
C206        C  0.03487218  0.19518161  0.34406220     0.05110
C207        C  0.05759991  0.17045469  0.34329851    -0.07180
C208        C  0.05843378  0.14816457  0.36785086    -0.07920
C209        C  0.03792662  0.15012849  0.39376308    -0.02480
C210        C  0.01514950  0.17477417  0.39479590     0.04340
N211        N  0.99238353  0.17678143  0.42001859     0.66850
H212        H  0.99655889  0.21596055  0.37063290     0.15750
H213        H  0.07652628  0.13008181  0.36759108     0.15460
N214        N  0.08147943  0.16878961  0.31912764     0.74550
O215        O  0.48286246  0.20364573  0.42964215    -0.38900
O216        O  0.47867464  0.15207581  0.42970241    -0.38840
O217        O  0.09851797  0.19273726  0.31346791    -0.39540
O218        O  0.08912178  0.14219332  0.30742045    -0.39610
C219        C  0.42300165  0.02382678  0.15940442    -0.11890
C220        C  0.39303857  0.03698187  0.15315450     0.05110
C221        C  0.38744951  0.05059344  0.12264742    -0.07180
C222        C  0.41134933  0.05045061  0.09978405    -0.07920
C223        C  0.44156836  0.03857667  0.10657730    -0.02480
C224        C  0.44728001  0.02479204  0.13679232     0.04340
N225        N  0.47715323  0.01074977  0.14470827     0.66850
H226        H  0.42776572  0.01232595  0.18193628     0.15750
H227        H  0.40663042  0.06150623  0.07695607     0.15460
N228        N  0.35862445  0.06685129  0.11490975     0.74550
O229        O  0.49007936  0.01679996  0.17121928    -0.38900
O230        O  0.98785547  0.98842800  0.12778833    -0.38840
O231        O  0.35069311  0.09127014  0.13051645    -0.39540
O232        O  0.34418314  0.06027630  0.08932711    -0.39610
C233        C  0.18344380  0.04787673  0.09808204    -0.11890
C234        C  0.15171815  0.05289550  0.10623243     0.05110
C235        C  0.14484927  0.06302792  0.13769344    -0.07210
C236        C  0.16948960  0.06809176  0.15960666    -0.07920
C237        C  0.20112606  0.06077997  0.15226152    -0.02480
C238        C  0.20785733  0.05068336  0.12057556     0.04340
N239        N  0.23880678  0.04095689  0.11090978     0.66850
H240        H  0.18943164  0.04000690  0.07425666     0.15750
H241        H  0.16323372  0.07668698  0.18302090     0.15460
N242        N  0.11304502  0.06726175  0.14845839     0.74550
O243        O  0.25021352  0.01521991  0.12126967    -0.38900
O244        O  0.25178742  0.05445623  0.08756389    -0.38840
O245        O  0.09630379  0.04307164  0.15401651    -0.39540
O246        O  0.10455341  0.09389204  0.15942647    -0.39610
C247        C  0.16796934  0.03626790  0.33831563    -0.11890
C248        C  0.20008705  0.03380968  0.34747663     0.05110
C249        C  0.20710983  0.03951212  0.38032382    -0.07180
C250        C  0.18257710  0.04225106  0.40250724    -0.07920
C251        C  0.15074239  0.04413217  0.39310479    -0.02480
C252        C  0.14383524  0.04354092  0.36001421     0.04340
N253        N  0.11354699  0.05316594  0.34752572     0.66850
H254        H  0.16114967  0.03522787  0.31364318     0.15750
H255        H  0.18888490  0.04493348  0.42741709     0.15460
N256        N  0.23833450  0.04662965  0.39156810     0.74550
O257        O  0.10406057  0.04250981  0.32100405    -0.38900
O258        O  0.10065711  0.07798036  0.35828178    -0.38840
O259        O  0.25148980  0.07205742  0.38275915    -0.39540
O260        O  0.24933506  0.03204449  0.41541676    -0.39610
C261        C  0.39837938  0.02713553  0.36240709    -0.11890
C262        C  0.39121329  0.05717701  0.34970877     0.05110
C263        C  0.40847061  0.08416568  0.35988887    -0.07180
C264        C  0.43294630  0.07996242  0.38235839    -0.07920
C265        C  0.44014693  0.04981817  0.39477966    -0.02480
C266        C  0.42281932  0.02291627  0.38467742     0.04340
N267        N  0.42990776  0.49114169  0.39631554     0.66850
H268        H  0.38531077  0.50622568  0.35412311     0.15750
H269        H  0.44618624  0.10040903  0.39080439     0.15460
N270        N  0.40120858  0.11568010  0.34845306     0.74550
O271        O  0.40913975  0.46960245  0.39511527    -0.38900
O272        O  0.45755739  0.48376814  0.40504540    -0.38840
O273        O  0.37406955  0.12228182  0.33770152    -0.39540
O274        O  0.42110943  0.13786081  0.35159791    -0.39610
C275        C  0.18195093  0.44529610  0.00274854    -0.11890
C276        C  0.15132481  0.43912456  0.99136678     0.05110
C277        C  0.14526013  0.40934447  0.47685739    -0.07180
C278        C  0.16947872  0.38658326  0.47452193    -0.07920
C279        C  0.19992000  0.39234718  0.98654661    -0.02480
C280        C  0.20593218  0.42226094  0.00129884     0.04340
N281        N  0.23537253  0.42904593  0.01706139     0.66850
H282        H  0.18695906  0.46773409  0.01450808     0.15750
H283        H  0.16439885  0.36424677  0.46265651     0.15460
N284        N  0.11505810  0.40204307  0.46311114     0.74550
O285        O  0.24844305  0.45575239  0.01331186    -0.38900
O286        O  0.24537493  0.41082736  0.03873773    -0.38840
O287        O  0.10412135  0.41937934  0.44121110    -0.39540
O288        O  0.10216345  0.37539132  0.96859580    -0.39610
C289        C  0.18182910  0.14511988  0.00210105    -0.11890
C290        C  0.15015997  0.15268265  0.00844010     0.05110
C291        C  0.14324202  0.18365462  0.52021359    -0.07180
C292        C  0.16789517  0.20526900  0.52633450    -0.07920
C293        C  0.19949498  0.19821490  0.01857245    -0.02480
C294        C  0.20614060  0.16752891  0.00577233     0.04340
N295        N  0.23678629  0.15914469  0.99397597     0.66850
H296        H  0.18773731  0.12193428  0.99247277     0.15750
H297        H  0.16180609  0.22822430  0.53624426     0.15460
N298        N  0.11141665  0.19421061  0.52515362     0.74550
O299        O  0.24954651  0.13341613  0.00264766    -0.38900
O300        O  0.24813353  0.17410605  0.47058967    -0.38840
O301        O  0.10386800  0.20605471  0.05169254    -0.39540
O302        O  0.09389072  0.19933273  0.50127433    -0.39610
C303        C  0.42045563  0.20451609  0.00587825    -0.11890
C304        C  0.39148451  0.19738276  0.49085784     0.05110
C305        C  0.38699275  0.16654495  0.47797248    -0.07180
C306        C  0.41081419  0.14351181  0.48211268    -0.07920
C307        C  0.43940825  0.15058078  0.99789979    -0.02480
C308        C  0.44427699  0.18175723  0.00960865     0.04340
N309        N  0.47243237  0.19047493  0.02680055     0.66850
H310        H  0.42405742  0.22771402  0.01661411     0.15750
H311        H  0.40741290  0.12005709  0.47188979     0.15460
N312        N  0.35926812  0.15854207  0.45964473     0.74550
O313        O  0.48523356  0.21712664  0.02192182    -0.38900
O314        O  0.98165997  0.17394394  0.05005989    -0.38840
O315        O  0.34692504  0.17872895  0.44116595    -0.39540
O316        O  0.34896401  0.13032687  0.95932668    -0.39610
C317        C  0.44565630  0.41024708  0.48915221    -0.11890
C318        C  0.43992143  0.44003376  0.00299683     0.05110
C319        C  0.41096818  0.44514594  0.01901882    -0.07180
C320        C  0.38852298  0.42068832  0.02052055    -0.07920
C321        C  0.39368817  0.39126760  0.00550835    -0.02480
C322        C  0.42276041  0.38621199  0.48943658     0.04340
N323        N  0.42874375  0.35776726  0.47142122     0.66850
H324        H  0.46754224  0.40609387  0.47648521     0.15750
H325        H  0.36669960  0.42497808  0.03321119     0.15460
N326        N  0.40407590  0.47475277  0.03440950     0.74550
O327        O  0.40954951  0.34910224  0.44996297    -0.38900
O328        O  0.45545413  0.34445598  0.47315679    -0.38840
O329        O  0.39327918  0.99753583  0.01822214    -0.39540
O330        O  0.40207036  0.47578978  0.06437592    -0.39610
C331        C  0.36804406  0.36706845  0.50464674     0.03510
C332        C  0.37518242  0.33419545  0.00801787    -0.12640
C333        C  0.35413081  0.31159240  0.99561285     0.01010
C334        C  0.32791863  0.32316447  0.97878864    -0.11170
C335        C  0.31492705  0.35288359  0.48695289     0.03500
C336        C  0.33612778  0.37599313  0.49829673    -0.10590
H337        H  0.39728335  0.32656554  0.01866473     0.09090
H338        H  0.31458447  0.30743802  0.96388534     0.06620
H339        H  0.32811080  0.40024749  0.50136174     0.06470
C340        C  0.36584297  0.22152805  0.99339921     0.03510
C341        C  0.37347555  0.25428998  0.99038736    -0.12640
C342        C  0.35413021  0.27715472  0.00467336     0.01010
C343        C  0.32898061  0.26601624  0.02310386    -0.11170
C344        C  0.31489107  0.23660539  0.51589720     0.03500
C345        C  0.33468670  0.21314175  0.50297675    -0.10590
H346        H  0.39478413  0.26166627  0.97827385     0.09090
H347        H  0.31693274  0.28208352  0.03865953     0.06620
H348        H  0.32614329  0.18896699  0.50119810     0.06470
C349        C  0.22410842  0.22413018  0.52011360     0.03510
C350        C  0.25691836  0.21665118  0.52426588    -0.12640
C351        C  0.27958271  0.23715664  0.51121035     0.01010
C352        C  0.26796393  0.26285493  0.49409919    -0.11170
C353        C  0.23952435  0.27727318  0.50252359     0.03500
C354        C  0.21594030  0.25667935  0.51364224    -0.10590
H355        H  0.26439897  0.19465238  0.53529591     0.09090
H356        H  0.28374046  0.27527952  0.47918576     0.06620
H357        H  0.19202534  0.26548035  0.51544833     0.06470
C358        C  0.22440206  0.36665921  0.48576202     0.03510
C359        C  0.25709021  0.37413389  0.48143035    -0.12640
C360        C  0.27996512  0.35308189  0.49339428     0.01010
C361        C  0.26872895  0.32722782  0.51043120    -0.11170
C362        C  0.23976528  0.31328335  0.50269929     0.03500
C363        C  0.21604515  0.33424672  0.49220263    -0.10590
H364        H  0.26431034  0.39643848  0.47091592     0.09090
H365        H  0.28500332  0.31430843  0.52459200     0.06620
H366        H  0.19189101  0.32596681  0.49061001     0.06470
C367        C  0.36695420  0.05757127  0.82432199     0.03510
C368        C  0.33504496  0.05057354  0.83194518    -0.12640
C369        C  0.31515212  0.03859435  0.80803592     0.01010
C370        C  0.32937520  0.03075546  0.77902062    -0.11170
C371        C  0.35572527  0.04748413  0.76831233     0.03500
C372        C  0.37616890  0.05966164  0.79182479    -0.10590
H373        H  0.32634879  0.05370225  0.85597072     0.09090
H374        H  0.31664890  0.01659062  0.76241840     0.06620
H375        H  0.39899108  0.06922322  0.78532324     0.06470
C376        C  0.22501888  0.03053031  0.82174204     0.03510
C377        C  0.25809435  0.02904160  0.82918519    -0.12640
C378        C  0.27977306  0.04170222  0.80743221     0.01010
C379        C  0.26705292  0.05526439  0.78007731    -0.11170
C380        C  0.23942477  0.04317101  0.76686344     0.03500
C381        C  0.21701624  0.03174258  0.78840994    -0.10590
H382        H  0.26683074  0.01897397  0.85114726     0.09090
H383        H  0.28158214  0.06978023  0.76583076     0.06620
H384        H  0.19437522  0.02445951  0.77902982     0.06470
C385        C  0.22547939  0.06001604  0.67851168     0.03510
C386        C  0.21664248  0.05290092  0.71058965    -0.12640
C387        C  0.23915151  0.03961286  0.73121246     0.01010
C388        C  0.26757678  0.02989574  0.71744441    -0.11170
C389        C  0.28006763  0.04718963  0.69222204     0.03500
C390        C  0.25843363  0.06259001  0.67206506    -0.10590
H391        H  0.19298355  0.05645475  0.71940922     0.09090
H392        H  0.28227112  0.01362908  0.73003108     0.06620
H393        H  0.26695597  0.07502254  0.65129319     0.06470
C394        C  0.36894460  0.03875483  0.67909231     0.03510
C395        C  0.37806148  0.04288326  0.71164929    -0.12640
C396        C  0.35607554  0.05519276  0.73332466     0.01010
C397        C  0.32775872  0.06687840  0.72036056    -0.11170
C398        C  0.31494633  0.05292371  0.69285050     0.03500
C399        C  0.33610563  0.03845015  0.67181177    -0.10590
H400        H  0.40165547  0.03753396  0.72004217     0.09090
H401        H  0.31369464  0.08283760  0.73412740     0.06620
H402        H  0.32738429  0.02848854  0.64963438     0.06470
C403        C  0.03504385  0.22039873  0.81945573     0.03510
C404        C  0.03694442  0.25280518  0.82889231    -0.12640
C405        C  0.04964795  0.27486540  0.80764014     0.01010
C406        C  0.06279881  0.26268533  0.77962502    -0.11170
C407        C  0.05054488  0.23498425  0.76573142     0.03500
C408        C  0.03735688  0.21262555  0.78650246    -0.10590
H409        H  0.03006236  0.26042223  0.85252170     0.09090
H410        H  0.07898348  0.27683180  0.76649097     0.06620
H411        H  0.03064102  0.18931622  0.77776295     0.06470
C412        C  0.05207936  0.36482142  0.82278945     0.03510
C413        C  0.05467714  0.33186056  0.82992371    -0.12640
C414        C  0.04247088  0.30974049  0.80812734     0.01010
C415        C  0.02665210  0.32192943  0.78157224    -0.11170
C416        C  0.03551731  0.35129963  0.76882635     0.03500
C417        C  0.04669725  0.37403345  0.79052737    -0.10590
H418        H  0.06445202  0.32388041  0.85241386     0.09090
H419        H  0.01210057  0.30649820  0.76783219     0.06620
H420        H  0.05003757  0.39827111  0.78266348     0.06470
C421        C  0.06177251  0.22424593  0.67586573     0.03510
C422        C  0.06005965  0.21486585  0.70831542    -0.12640
C423        C  0.04594514  0.23554289  0.73024485     0.01010
C424        C  0.03153688  0.26266797  0.71776558    -0.11170
C425        C  0.04318623  0.27703559  0.69017488     0.03500
C426        C  0.05691715  0.25669530  0.66759749    -0.10590
H427        H  0.06788917  0.19150542  0.71576423     0.09090
H428        H  0.01558962  0.27562347  0.73225006     0.06620
H429        H  0.06240546  0.26530296  0.64398591     0.06470
C430        C  0.03146977  0.36720535  0.67829274     0.03510
C431        C  0.02958538  0.37446701  0.71150056    -0.12640
C432        C  0.04078980  0.35198128  0.73343293     0.01010
C433        C  0.05547815  0.32525711  0.72068736    -0.11170
C434        C  0.04598187  0.31273932  0.69143070     0.03500
C435        C  0.03538195  0.33477111  0.66873744    -0.10590
H436        H  0.02145638  0.39749218  0.71968988     0.09090
H437        H  0.06957698  0.31111813  0.73585073     0.06620
H438        H  0.03188385  0.32729741  0.64427940     0.06470
O439        O  0.45573792  0.49408869  0.50085111    -0.86110
O440        O  0.13561392  0.49350341  0.49670604    -0.86280
O441        O  0.04584485  0.45496415  0.94812282    -0.87950
O442        O  0.04356885  0.45452801  0.55143030    -0.86700
O443        O  0.04539552  0.49319781  0.59012253    -0.86290
O444        O  0.04595014  0.49330320  0.90938286    -0.87660
O445        O  0.09740495  0.45477949  0.49744520    -0.86140
O446        O  0.49395359  0.45545936  0.49980731    -0.85730
Zr447      Zr  0.04592299  0.48110648  0.49987553     2.84310
O448        O  0.07873876  0.01274671  0.53231797    -1.07700
O449        O  0.01325921  0.01276540  0.96762427    -1.08430
C450        C  0.46481681  0.46483762  0.50101871     1.07000
C451        C  0.12646829  0.46409009  0.49549818     1.06940
C452        C  0.04677195  0.46406292  0.91879522     1.09920
C453        C  0.04303276  0.46394859  0.58076692     1.07700
H454        H  0.09041526  0.00038380  0.95437401     0.33260
O455        O  0.07737916  0.01347203  0.96792438    -1.28660
H456        H  0.00126165  0.99985971  0.54514023     0.32930
O457        O  0.01434596  0.01318255  0.53198113    -1.30340
O458        O  0.13505114  0.09819475  0.50251035    -0.86110
O459        O  0.45524020  0.09653368  0.50042149    -0.87600
O460        O  0.09646764  0.04446579  0.90952298    -0.86180
O461        O  0.09781536  0.04752439  0.59015774    -0.86230
O462        O  0.49553159  0.04334262  0.59115430    -0.85940
O463        O  0.49369593  0.04691955  0.90972345    -0.85750
O464        O  0.04200478  0.13583981  0.94833762    -0.86120
O465        O  0.04710415  0.13557005  0.55199846    -0.85580
O466        O  0.04323793  0.09681770  0.90989912    -0.86650
O467        O  0.04792459  0.09678586  0.59054003    -0.85810
O468        O  0.13516024  0.04721426  0.94764012    -0.86200
O469        O  0.45560065  0.04618025  0.94862305    -0.85930
O470        O  0.45704315  0.04272833  0.55251454    -0.85580
O471        O  0.13601258  0.04743310  0.55180185    -0.85980
O472        O  0.09632976  0.13622141  0.50248658    -0.86280
O473        O  0.49348460  0.13510603  0.49979507    -0.87620
Zr474      Zr  0.10977357  0.04568704  0.49976041     2.83100
Zr475      Zr  0.48206294  0.04529268  0.50036506     2.83500
Zr476      Zr  0.04521865  0.04518496  0.93585881     2.84090
Zr477      Zr  0.04637389  0.04506015  0.56416667     2.83360
Zr478      Zr  0.04526289  0.10950310  0.50010600     2.84220
O479        O  0.01359000  0.07778957  0.53298528    -1.08190
O480        O  0.07762671  0.07801268  0.96742496    -1.07690
C481        C  0.12554619  0.12748843  0.50395393     1.06970
C482        C  0.46435876  0.12583732  0.49980068     1.09590
C483        C  0.12573993  0.04580817  0.91828378     1.07140
C484        C  0.12688111  0.04883608  0.58116755     1.07500
C485        C  0.46641459  0.04172652  0.58187294     1.07080
C486        C  0.46476613  0.04733640  0.91935199     1.06640
C487        C  0.04123705  0.12609749  0.91909211     1.07060
C488        C  0.04838828  0.12601430  0.58117296     1.06580
H489        H  0.00000910  0.09025201  0.95513083     0.33250
O490        O  0.01348823  0.07709229  0.96820669    -1.29290
H491        H  0.09048105  0.09048815  0.54505668     0.33280
O492        O  0.07737268  0.07716343  0.53170142    -1.30670
C493        C  0.01617456  0.38998885  0.62548953    -0.11890
C494        C  0.03295948  0.39308601  0.65424467     0.05110
C495        C  0.05275902  0.42001610  0.65876887    -0.07180
C496        C  0.05490105  0.44301233  0.63477904    -0.07920
C497        C  0.03874037  0.43948954  0.60577370    -0.02480
C498        C  0.01857865  0.41293141  0.60139969     0.04340
N499        N  0.99889486  0.40991661  0.57363808     0.66850
H500        H  0.00047470  0.36991470  0.62200059     0.15750
H501        H  0.07051009  0.46317419  0.63829178     0.15460
N502        N  0.07247072  0.42351323  0.68652531     0.74550
O503        O  0.99483108  0.38303530  0.56076772    -0.38900
O504        O  0.98138262  0.43280093  0.56545350    -0.38840
O505        O  0.09091845  0.40132418  0.69463803    -0.39540
O506        O  0.07531498  0.45040755  0.69969689    -0.39610
C507        C  0.08156003  0.16403514  0.61094114    -0.11890
C508        C  0.05155006  0.15059064  0.60584581     0.05110
C509        C  0.02537986  0.16159057  0.62345801    -0.07180
C510        C  0.03019353  0.18603836  0.64569958    -0.07920
C511        C  0.06013968  0.19953371  0.65096388    -0.02480
C512        C  0.08642385  0.18861420  0.63333535     0.04340
N513        N  0.11777930  0.20160792  0.63773379     0.66850
H514        H  0.10128231  0.15531110  0.59703630     0.15750
H515        H  0.51030209  0.19458214  0.65956296     0.15460
N516        N  0.49391273  0.14896929  0.61894347     0.74550
O517        O  0.14142480  0.18767464  0.62586174    -0.38900
O518        O  0.12213384  0.22756182  0.65228855    -0.38840
O519        O  0.48960560  0.12078404  0.60944775    -0.39540
O520        O  0.47008921  0.16542333  0.62645106    -0.39610
C521        C  0.03544413  0.40906547  0.90030252    -0.11890
C522        C  0.04943941  0.43867304  0.89435759     0.05110
C523        C  0.06593046  0.44307847  0.86550776    -0.07180
C524        C  0.06746993  0.41831076  0.84321854    -0.07920
C525        C  0.05258438  0.38908655  0.84860391    -0.02480
C526        C  0.03617377  0.38454188  0.87765410     0.04340
N527        N  0.01832082  0.35621266  0.88383601     0.66850
H528        H  0.02243144  0.40542110  0.92216319     0.15750
H529        H  0.08075341  0.42194995  0.82155150     0.15460
N530        N  0.08203399  0.47211871  0.85861297     0.74550
O531        O  0.01974289  0.34337854  0.91095560    -0.38900
O532        O  0.99729563  0.34722506  0.86434741    -0.38840
O533        O  0.10271114  0.48253836  0.87772448    -0.39540
O534        O  0.08202954  0.98308922  0.83125024    -0.39610
C535        C  0.01413769  0.19717890  0.86992475    -0.11890
C536        C  0.03491423  0.19514188  0.84398618     0.05110
C537        C  0.05757145  0.17034965  0.84321074    -0.07180
C538        C  0.05838326  0.14807949  0.86778473    -0.07920
C539        C  0.03791625  0.15011059  0.89372626    -0.02480
C540        C  0.01520132  0.17481414  0.89476506     0.04340
N541        N  0.99247151  0.17689947  0.92001464     0.66850
H542        H  0.99668360  0.21602951  0.87059582     0.15750
H543        H  0.07643397  0.12995743  0.86751629     0.15460
N544        N  0.08140819  0.16859250  0.81900374     0.74550
O545        O  0.48302330  0.20372439  0.92969930    -0.38900
O546        O  0.47869765  0.15216572  0.92974481    -0.38840
O547        O  0.09852373  0.19247673  0.81331284    -0.39540
O548        O  0.08893952  0.14196512  0.80729364    -0.39610
C549        C  0.42296881  0.02378825  0.65934133    -0.11890
C550        C  0.39300289  0.03695065  0.65310317     0.05110
C551        C  0.38743567  0.05060349  0.62260528    -0.07180
C552        C  0.41134574  0.05048543  0.59975113    -0.07920
C553        C  0.44156311  0.03861006  0.60654190    -0.02480
C554        C  0.44726187  0.02479683  0.63674503     0.04340
N555        N  0.47714250  0.01077605  0.64466887     0.66850
H556        H  0.42773354  0.01224886  0.68185117     0.15750
H557        H  0.40663524  0.06156477  0.57693289     0.15460
N558        N  0.35862508  0.06688208  0.61486418     0.74550
O559        O  0.49006386  0.01684730  0.67117743    -0.38900
O560        O  0.98785884  0.98841320  0.62776988    -0.38840
O561        O  0.35074949  0.09135034  0.63042192    -0.39540
O562        O  0.34415298  0.06027448  0.58930742    -0.39610
C563        C  0.18348063  0.04827097  0.59804107    -0.11890
C564        C  0.15173048  0.05306397  0.60623083     0.05110
C565        C  0.14483239  0.06312470  0.63770661    -0.07210
C566        C  0.16946911  0.06838174  0.65957757    -0.07920
C567        C  0.20114838  0.06127028  0.65220589    -0.02480
C568        C  0.20790216  0.05123082  0.62050480     0.04340
N569        N  0.23889587  0.04171754  0.61078311     0.66850
H570        H  0.18949855  0.04046764  0.57420190     0.15750
H571        H  0.16317033  0.07693737  0.68299116     0.15460
N572        N  0.11301191  0.06704565  0.64854547     0.74550
O573        O  0.25038578  0.01592824  0.62091739    -0.38900
O574        O  0.25182449  0.05545725  0.58754907    -0.38840
O575        O  0.09645215  0.04269094  0.65393994    -0.39540
O576        O  0.10434516  0.09352662  0.65973486    -0.39610
C577        C  0.16774115  0.03611164  0.83825518    -0.11890
C578        C  0.19990086  0.03398984  0.84734142     0.05110
C579        C  0.20698135  0.03998523  0.88012259    -0.07180
C580        C  0.18249232  0.04266347  0.90236527    -0.07920
C581        C  0.15062293  0.04427782  0.89303172    -0.02480
C582        C  0.14363710  0.04347609  0.85995710     0.04340
N583        N  0.11331992  0.05304137  0.84747435     0.66850
H584        H  0.16084184  0.03470471  0.81362787     0.15750
H585        H  0.18884009  0.04554548  0.92724292     0.15460
N586        N  0.23819298  0.04744473  0.89119689     0.74550
O587        O  0.10386763  0.04242234  0.82092526    -0.38900
O588        O  0.10039269  0.07783175  0.85823865    -0.38840
O589        O  0.25123971  0.07275300  0.88190013    -0.39540
O590        O  0.24931345  0.03331436  0.91526530    -0.39610
C591        C  0.39831441  0.02681915  0.86250320    -0.11890
C592        C  0.39111314  0.05683232  0.84976035     0.05110
C593        C  0.40833076  0.08385942  0.85990592    -0.07180
C594        C  0.43281661  0.07971988  0.88237517    -0.07920
C595        C  0.44006170  0.04960163  0.89483166    -0.02480
C596        C  0.42276166  0.02266368  0.88477701     0.04340
N597        N  0.42989391  0.49133411  0.89614018     0.66850
H598        H  0.38531625  0.50656294  0.85398127     0.15750
H599        H  0.44603060  0.10019555  0.89079220     0.15460
N600        N  0.40101771  0.11534939  0.84843463     0.74550
O601        O  0.40910067  0.46982202  0.89488894    -0.38900
O602        O  0.45753396  0.48390839  0.90485621    -0.38840
O603        O  0.37386795  0.12189468  0.83767560    -0.39540
O604        O  0.42087973  0.13756767  0.85156107    -0.39610
C605        C  0.18200559  0.44541872  0.50275008    -0.11890
C606        C  0.15138055  0.43924339  0.49136844     0.05110
C607        C  0.14520557  0.40922173  0.97685439    -0.07180
C608        C  0.16943112  0.38646600  0.97450566    -0.07920
C609        C  0.19996521  0.39246120  0.48657094    -0.02480
C610        C  0.20598484  0.42238240  0.50130779     0.04340
N611        N  0.23542966  0.42917731  0.51705855     0.66850
H612        H  0.18701424  0.46786063  0.51450218     0.15750
H613        H  0.16435450  0.36413009  0.96263751     0.15460
N614        N  0.11499842  0.40190610  0.96312421     0.74550
O615        O  0.24849610  0.45588361  0.51329221    -0.38900
O616        O  0.24543471  0.41097532  0.53874749    -0.38840
O617        O  0.10403278  0.41925010  0.94124479    -0.39540
O618        O  0.10218450  0.37555424  0.46861343    -0.39610
C619        C  0.18183447  0.14518155  0.50210599    -0.11890
C620        C  0.15016313  0.15273086  0.50844558     0.05110
C621        C  0.14325156  0.18360188  0.02022361    -0.07180
C622        C  0.16791377  0.20519986  0.02635910    -0.07920
C623        C  0.19947978  0.19829312  0.51855336    -0.02480
C624        C  0.20613550  0.16760449  0.50576318     0.04340
N625        N  0.23678126  0.15923032  0.49396075     0.66850
H626        H  0.18775232  0.12199483  0.49248666     0.15750
H627        H  0.16183449  0.22815263  0.03628111     0.15460
N628        N  0.11143037  0.19417084  0.02516254     0.74550
O629        O  0.24955983  0.13351483  0.50264385    -0.38900
O630        O  0.24815149  0.17402310  0.97061306    -0.38840
O631        O  0.10385213  0.20609708  0.55168188    -0.39540
O632        O  0.09390934  0.19930581  0.00128243    -0.39610
C633        C  0.42044601  0.20457404  0.50586887    -0.11890
C634        C  0.39149281  0.19733531  0.99086659     0.05110
C635        C  0.38699041  0.16650020  0.97797714    -0.07180
C636        C  0.41080098  0.14345689  0.98212016    -0.07920
C637        C  0.43942235  0.15064737  0.49788723    -0.02480
C638        C  0.44427822  0.18182540  0.50959651     0.04340
N639        N  0.47243184  0.19055534  0.52678504     0.66850
H640        H  0.42404018  0.22777361  0.51660366     0.15750
H641        H  0.40739259  0.12000375  0.97189593     0.15460
N642        N  0.35926545  0.15851017  0.95964382     0.74550
O643        O  0.48521997  0.21721327  0.52190540    -0.38900
O644        O  0.98171407  0.17396183  0.55005139    -0.38840
O645        O  0.34692581  0.17870800  0.94117477    -0.39540
O646        O  0.34897139  0.13035698  0.45934159    -0.39610
C647        C  0.44561720  0.41024715  0.98912061    -0.11890
C648        C  0.43997150  0.44002851  0.50304147     0.05110
C649        C  0.41102535  0.44514509  0.51907466    -0.07180
C650        C  0.38857265  0.42069689  0.52057110    -0.07920
C651        C  0.39372416  0.39128333  0.50554212    -0.02480
C652        C  0.42272971  0.38620215  0.98941053     0.04340
N653        N  0.42872813  0.35775111  0.97140984     0.66850
H654        H  0.46750808  0.40609525  0.97646193     0.15750
H655        H  0.36675406  0.42498901  0.53326935     0.15460
N656        N  0.40414692  0.47474817  0.53447887     0.74550
O657        O  0.40953548  0.34906119  0.94996021    -0.38900
O658        O  0.45544722  0.34445778  0.97314797    -0.38840
O659        O  0.39332232  0.99758969  0.51821886    -0.39540
O660        O  0.40218935  0.47578214  0.56444881    -0.39610
C661        C  0.36796936  0.86702534  0.00467748     0.03510
C662        C  0.37520542  0.83423284  0.50800234    -0.12640
C663        C  0.35414705  0.81164148  0.49559045     0.01010
C664        C  0.32793184  0.82322730  0.47877895    -0.11170
C665        C  0.31486186  0.85285211  0.98694967     0.03500
C666        C  0.33606023  0.87595714  0.99830393    -0.10590
H667        H  0.39730519  0.82659255  0.51864418     0.09090
H668        H  0.31458945  0.80751101  0.46387204     0.06620
H669        H  0.32804828  0.90021497  0.00135484     0.06470
C670        C  0.36583923  0.72157113  0.49339539     0.03510
C671        C  0.37347794  0.75433099  0.49037046    -0.12640
C672        C  0.35413679  0.77720428  0.50464922     0.01010
C673        C  0.32898948  0.76607719  0.52308707    -0.11170
C674        C  0.31477312  0.73654142  0.01588660     0.03500
C675        C  0.33459110  0.71308302  0.00297904    -0.10590
H676        H  0.39478890  0.76169899  0.47825617     0.09090
H677        H  0.31695049  0.78215022  0.53864294     0.06620
H678        H  0.32605261  0.68890829  0.00117488     0.06470
C679        C  0.22395379  0.72413877  0.02000855     0.03510
C680        C  0.25675758  0.71661919  0.02418491    -0.12640
C681        C  0.27946197  0.73710614  0.01115875     0.01010
C682        C  0.26787984  0.76282552  0.99405605    -0.11170
C683        C  0.23944475  0.77726175  0.00246351     0.03500
C684        C  0.21582932  0.75669385  0.01354556    -0.10590
H685        H  0.26420395  0.69461341  0.03522316     0.09090
H686        H  0.28367992  0.77524576  0.97916588     0.06620
H687        H  0.19192244  0.76552177  0.01533122     0.06470
C688        C  0.22433449  0.86662943  0.98572253     0.03510
C689        C  0.25702460  0.87411349  0.98140854    -0.12640
C690        C  0.27989755  0.85305851  0.99337625     0.01010
C691        C  0.26865502  0.82720320  0.01040433    -0.11170
C692        C  0.23969799  0.81326224  0.00265055     0.03500
C693        C  0.21598118  0.83421862  0.99214997    -0.10590
H694        H  0.26424510  0.89642423  0.97090752     0.09090
H695        H  0.28492295  0.81428038  0.02456936     0.06620
H696        H  0.19182961  0.82593282  0.99054918     0.06470
C697        C  0.36697911  0.55758216  0.32431850     0.03510
C698        C  0.33507205  0.55057498  0.33194358    -0.12640
C699        C  0.31518036  0.53859341  0.30803417     0.01010
C700        C  0.32940380  0.53076020  0.27901817    -0.11170
C701        C  0.35574386  0.54750189  0.26830789     0.03500
C702        C  0.37618830  0.55968148  0.29181961    -0.10590
H703        H  0.32637692  0.55369863  0.35597013     0.09090
H704        H  0.31668243  0.51658977  0.26241708     0.06620
H705        H  0.39900657  0.56925110  0.28531613     0.06470
C706        C  0.22505097  0.53051618  0.32174994     0.03510
C707        C  0.25812698  0.52903245  0.32918972    -0.12640
C708        C  0.27980047  0.54169113  0.30743130     0.01010
C709        C  0.26707385  0.55524399  0.28007443    -0.11170
C710        C  0.23944607  0.54314219  0.26686641     0.03500
C711        C  0.21704383  0.53171348  0.28841865    -0.10590
H712        H  0.26686753  0.51897173  0.35115322     0.09090
H713        H  0.28159818  0.56975904  0.26582291     0.06620
H714        H  0.19440330  0.52442017  0.27904481     0.06470
C715        C  0.22547582  0.55994962  0.17850813     0.03510
C716        C  0.21664705  0.55284202  0.21059060    -0.12640
C717        C  0.23916816  0.53957692  0.23121600     0.01010
C718        C  0.26759684  0.52987365  0.21744723    -0.11170
C719        C  0.28007517  0.54717213  0.19222302     0.03500
C720        C  0.25842856  0.56254687  0.17205881    -0.10590
H721        H  0.19298636  0.55638268  0.21941075     0.09090
H722        H  0.28230185  0.51361831  0.23003543     0.06620
H723        H  0.26694027  0.57497477  0.15127966     0.06470
C724        C  0.36895029  0.53875984  0.17909107     0.03510
C725        C  0.37807095  0.54289948  0.21164477    -0.12640
C726        C  0.35608622  0.55520983  0.23331972     0.01010
C727        C  0.32776342  0.56688487  0.22035614    -0.11170
C728        C  0.31495149  0.55292296  0.19284795     0.03500
C729        C  0.33611186  0.53844848  0.17181217    -0.10590
H730        H  0.40166740  0.53755699  0.22003530     0.09090
H731        H  0.31369816  0.58284598  0.23412000     0.06620
H732        H  0.32739150  0.52848054  0.14963713     0.06470
C733        C  0.03506399  0.72044030  0.31948260     0.03510
C734        C  0.03698409  0.75284656  0.32891436    -0.12640
C735        C  0.04968574  0.77489848  0.30765292     0.01010
C736        C  0.06281245  0.76270630  0.27962821    -0.11170
C737        C  0.05054395  0.73500224  0.26574810     0.03500
C738        C  0.03735778  0.71265696  0.28653171    -0.10590
H739        H  0.03011649  0.76046871  0.35254653     0.09090
H740        H  0.07899610  0.77684291  0.26648280     0.06620
H741        H  0.03062936  0.68934733  0.27780268     0.06470
C742        C  0.05209359  0.86487129  0.32278195     0.03510
C743        C  0.05470199  0.83191093  0.32992884    -0.12640
C744        C  0.04250995  0.80977631  0.30813508     0.01010
C745        C  0.02668535  0.82195158  0.28158008    -0.11170
C746        C  0.03554630  0.85131380  0.26881959     0.03500
C747        C  0.04671536  0.87406441  0.29051176    -0.10590
H748        H  0.06447623  0.82394232  0.35242327     0.09090
H749        H  0.01213237  0.80651332  0.26785098     0.06620
H750        H  0.05004829  0.89829900  0.28263563     0.06470
C751        C  0.06167606  0.72420105  0.17586912     0.03510
C752        C  0.05999300  0.71484114  0.20832781    -0.12640
C753        C  0.04592059  0.73554387  0.23026327     0.01010
C754        C  0.03151003  0.76266507  0.21778348    -0.11170
C755        C  0.04314067  0.77701413  0.19017731     0.03500
C756        C  0.05683056  0.75665178  0.16759040    -0.10590
H757        H  0.06782065  0.69148202  0.21578253     0.09090
H758        H  0.01557832  0.77563251  0.23227399     0.06620
H759        H  0.06230371  0.76524581  0.14397027     0.06470
C760        C  0.03142781  0.86718189  0.17828586     0.03510
C761        C  0.02956929  0.87445327  0.21149201    -0.12640
C762        C  0.04079581  0.85197831  0.23342136     0.01010
C763        C  0.05546931  0.82524546  0.22067047    -0.11170
C764        C  0.04595058  0.81271921  0.19142187     0.03500
C765        C  0.03533198  0.83474617  0.16873350    -0.10590
H766        H  0.02144659  0.89748093  0.21968087     0.09090
H767        H  0.06957863  0.81110940  0.23582596     0.06620
H768        H  0.03181404  0.82726790  0.14427963     0.06470
O769        O  0.45568330  0.99404693  0.00084946    -0.86110
O770        O  0.13553407  0.99342829  0.99671382    -0.86280
O771        O  0.04587615  0.95504614  0.44810989    -0.87950
O772        O  0.04349113  0.95449216  0.05142439    -0.86700
O773        O  0.04533384  0.99316320  0.09011480    -0.86290
O774        O  0.04596566  0.99338680  0.40937071    -0.87660
O775        O  0.09731510  0.95471477  0.99745356    -0.86140
O776        O  0.49388958  0.95540919  0.99980606    -0.85730
Zr777      Zr  0.04585259  0.98107107  0.99987517     2.84310
O778        O  0.07871884  0.51268352  0.03230496    -1.07700
O779        O  0.01331653  0.51279565  0.46763014    -1.08430
C780        C  0.46475381  0.96479292  0.00101703     1.07000
C781        C  0.12637998  0.96401790  0.99550966     1.06940
C782        C  0.04679516  0.96414543  0.41878051     1.09920
C783        C  0.04296184  0.96391470  0.08075957     1.07700
H784        H  0.09047461  0.50043841  0.45437449     0.33260
O785        O  0.07743522  0.51352229  0.46792588    -1.28660
H786        H  0.00123520  0.49978002  0.04513985     0.32930
O787        O  0.01431837  0.51310404  0.03198197    -1.30340
O788        O  0.13483741  0.59827928  0.00247421    -0.86110
O789        O  0.45522991  0.59651932  0.00041196    -0.87600
O790        O  0.09651201  0.54451149  0.40952519    -0.86180
O791        O  0.09781181  0.54742119  0.09013973    -0.86230
O792        O  0.49552577  0.54332904  0.09115124    -0.85940
O793        O  0.49372356  0.54695828  0.40972410    -0.85750
O794        O  0.04202683  0.63587595  0.44834660    -0.86120
O795        O  0.04705573  0.63546372  0.05203007    -0.85580
O796        O  0.04326939  0.59685632  0.40990584    -0.86650
O797        O  0.04791600  0.59668069  0.09057059    -0.85810
O798        O  0.13520517  0.54728043  0.44764098    -0.86200
O799        O  0.45563170  0.54622268  0.44862699    -0.85930
O800        O  0.45703557  0.54271624  0.05251289    -0.85580
O801        O  0.13601125  0.54737778  0.05178489    -0.85980
O802        O  0.09612018  0.63632103  0.00240117    -0.86280
O803        O  0.49347293  0.63509364  0.99978920    -0.87620
Zr804      Zr  0.10974626  0.54564644  0.99975708     2.83100
Zr805      Zr  0.48205008  0.54527498  0.00036273     2.83500
Zr806      Zr  0.04526219  0.54522207  0.43585958     2.84090
Zr807      Zr  0.04635544  0.54497992  0.06416317     2.83360
Zr808      Zr  0.04518764  0.60942521  0.00010688     2.84220
O809        O  0.01354347  0.57770240  0.03299599    -1.08190
O810        O  0.07766285  0.57806091  0.46742432    -1.07690
C811        C  0.12532769  0.62758036  0.00387929     1.06970
C812        C  0.46434573  0.62582417  0.99979137     1.09590
C813        C  0.12578406  0.54586291  0.41828585     1.07140
C814        C  0.12687874  0.54874937  0.08115181     1.07500
C815        C  0.46640885  0.54171495  0.08187041     1.07080
C816        C  0.46479433  0.54737483  0.41935451     1.06640
C817        C  0.04126178  0.62613469  0.41910151     1.07060
C818        C  0.04836260  0.62590893  0.08120658     1.06580
H819        H  0.00004120  0.59027998  0.45513225     0.33250
O820        O  0.01352433  0.57712339  0.46820723    -1.29290
H821        H  0.09043832  0.59043977  0.04505153     0.33280
O822        O  0.07733344  0.57710825  0.03169983    -1.30670
C823        C  0.01610785  0.88996264  0.12549088    -0.11890
C824        C  0.03290963  0.89305779  0.15423582     0.05110
C825        C  0.05271772  0.91998271  0.15874964    -0.07180
C826        C  0.05484968  0.94297854  0.13476102    -0.07920
C827        C  0.03867201  0.93945868  0.10576589    -0.02480
C828        C  0.01850353  0.91290434  0.10140011     0.04340
N829        N  0.99880823  0.90989103  0.07364619     0.66850
H830        H  0.00040293  0.86989097  0.12201103     0.15750
H831        H  0.07046557  0.96313655  0.13826513     0.15460
N832        N  0.07244899  0.92347356  0.18649264     0.74550
O833        O  0.99472798  0.88300808  0.06078442    -0.38900
O834        O  0.98130396  0.93278116  0.06546055    -0.38840
O835        O  0.09090463  0.90128371  0.19458485    -0.39540
O836        O  0.07530089  0.95036453  0.19966945    -0.39610
C837        C  0.08152332  0.66391141  0.11102628    -0.11890
C838        C  0.05151281  0.65048489  0.10588754     0.05110
C839        C  0.02532642  0.66150342  0.12346415    -0.07180
C840        C  0.03011892  0.68597031  0.14569293    -0.07920
C841        C  0.06006015  0.69947082  0.15097729    -0.02480
C842        C  0.08636325  0.68852304  0.13339272     0.04340
N843        N  0.11771154  0.70153366  0.13779575     0.66850
H844        H  0.10126254  0.65515863  0.09716426     0.15750
H845        H  0.51029772  0.69457945  0.15954891     0.15460
N846        N  0.49391080  0.64895930  0.11893578     0.74550
O847        O  0.14136769  0.68760740  0.12593704    -0.38900
O848        O  0.12204542  0.72751088  0.15231478    -0.38840
O849        O  0.48960342  0.62077300  0.10944327    -0.39540
O850        O  0.47008732  0.66541482  0.12644027    -0.39610
C851        C  0.03547353  0.90914328  0.40029283    -0.11890
C852        C  0.04945825  0.93875401  0.39433833     0.05110
C853        C  0.06593135  0.94315859  0.36547597    -0.07180
C854        C  0.06746343  0.91838458  0.34318873    -0.07920
C855        C  0.05259323  0.88915323  0.34858822    -0.02480
C856        C  0.03619882  0.88461358  0.37764922     0.04340
N857        N  0.01835791  0.85628114  0.38385013     0.66850
H858        H  0.02247283  0.90549922  0.42216081     0.15750
H859        H  0.08073518  0.92202238  0.32151434     0.15460
N860        N  0.08202999  0.97220023  0.35856852     0.74550
O861        O  0.01978551  0.84346641  0.41097878    -0.38900
O862        O  0.99733051  0.84727726  0.36437163    -0.38840
O863        O  0.10268596  0.98264667  0.37768873    -0.39540
O864        O  0.08196618  0.48315281  0.33119883    -0.39610
C865        C  0.01416018  0.69722040  0.36994839    -0.11890
C866        C  0.03493957  0.69518775  0.34401301     0.05110
C867        C  0.05759907  0.67039828  0.34323368    -0.07180
C868        C  0.05840982  0.64812381  0.36780213    -0.07920
C869        C  0.03793858  0.65014867  0.39374007    -0.02480
C870        C  0.01522129  0.67484990  0.39478251     0.04340
N871        N  0.99248587  0.67692559  0.42002782     0.66850
H872        H  0.99670521  0.71607026  0.37061999     0.15750
H873        H  0.07646178  0.63000287  0.36753222     0.15460
N874        N  0.08143663  0.66864700  0.31902677     0.74550
O875        O  0.48303809  0.70376983  0.42968759    -0.38900
O876        O  0.47871455  0.65221105  0.42974863    -0.38840
O877        O  0.09854504  0.69253592  0.31333386    -0.39540
O878        O  0.08897306  0.64202189  0.30731482    -0.39610
C879        C  0.42296796  0.52378260  0.15933886    -0.11890
C880        C  0.39300482  0.53695073  0.15310176     0.05110
C881        C  0.38743637  0.55060395  0.12260474    -0.07180
C882        C  0.41134414  0.55048177  0.09974939    -0.07920
C883        C  0.44155951  0.53860145  0.10653920    -0.02480
C884        C  0.44725889  0.52478678  0.13674126     0.04340
N885        N  0.47713750  0.51076016  0.14466224     0.66850
H886        H  0.42773159  0.51224271  0.18184882     0.15750
H887        H  0.40663405  0.56156205  0.07693151     0.15460
N888        N  0.35862735  0.56688672  0.11486614     0.74550
O889        O  0.49006268  0.51682902  0.17116946    -0.38900
O890        O  0.98782968  0.48832096  0.12777584    -0.38840
O891        O  0.35075474  0.59135413  0.13042677    -0.39540
O892        O  0.34415357  0.56028322  0.08930928    -0.39610
C893        C  0.18347839  0.54816154  0.09803825    -0.11890
C894        C  0.15172690  0.55296037  0.10622156     0.05110
C895        C  0.14482534  0.56301678  0.13769776    -0.07210
C896        C  0.16945903  0.56827693  0.15957207    -0.07920
C897        C  0.20114117  0.56117601  0.15220296    -0.02480
C898        C  0.20789829  0.55112768  0.12050518     0.04340
N899        N  0.23889594  0.54162072  0.11078899     0.66850
H900        H  0.18949824  0.54035559  0.07420044     0.15750
H901        H  0.16315637  0.57683301  0.18298444     0.15460
N902        N  0.11300342  0.56693784  0.14853121     0.74550
O903        O  0.25040184  0.51584763  0.12094642    -0.38900
O904        O  0.25182070  0.55535259  0.08754813    -0.38840
O905        O  0.09644536  0.54258337  0.15393182    -0.39540
O906        O  0.10433104  0.59342278  0.15970651    -0.39610
C907        C  0.16777880  0.53613631  0.33826210    -0.11890
C908        C  0.19993717  0.53399788  0.34734916     0.05110
C909        C  0.20702197  0.54000116  0.38012796    -0.07180
C910        C  0.18253502  0.54269930  0.40236989    -0.07920
C911        C  0.15066651  0.54432446  0.39303574    -0.02480
C912        C  0.14367938  0.54351785  0.35996240     0.04340
N913        N  0.11336542  0.55309213  0.34747945     0.66850
H914        H  0.16087839  0.53472965  0.31363496     0.15750
H915        H  0.18888445  0.54558497  0.42724673     0.15460
N916        N  0.23823732  0.54744873  0.39119933     0.74550
O917        O  0.10390540  0.54246775  0.32093534    -0.38900
O918        O  0.10044721  0.57788897  0.35824006    -0.38840
O919        O  0.25129273  0.57275188  0.38190095    -0.39540
O920        O  0.24935407  0.53331501  0.41526747    -0.39610
C921        C  0.39834492  0.52683970  0.36250605    -0.11890
C922        C  0.39114063  0.55684948  0.34975629     0.05110
C923        C  0.40835522  0.58388013  0.35989794    -0.07180
C924        C  0.43284024  0.57974782  0.38237006    -0.07920
C925        C  0.44008779  0.54963312  0.39483413    -0.02480
C926        C  0.42279141  0.52269127  0.38478286     0.04340
N927        N  0.42989820  0.99133708  0.39615139     0.66850
H928        H  0.38531707  0.00655299  0.35399047     0.15750
H929        H  0.44605170  0.60022667  0.39078326     0.15460
N930        N  0.40103940  0.61536704  0.34842025     0.74550
O931        O  0.40910766  0.96982218  0.39490308    -0.38900
O932        O  0.45753882  0.98391626  0.40486980    -0.38840
O933        O  0.37388798  0.62190854  0.33766314    -0.39540
O934        O  0.42090059  0.63758698  0.35153956    -0.39610
C935        C  0.18190919  0.94534684  0.00277540    -0.11890
C936        C  0.15128708  0.93916925  0.99138646     0.05110
C937        C  0.14525212  0.90931818  0.47684780    -0.07180
C938        C  0.16947858  0.88656612  0.47450165    -0.07920
C939        C  0.19988750  0.89241542  0.98654979    -0.02480
C940        C  0.20589363  0.92231986  0.00131948     0.04340
N941        N  0.23532875  0.92910049  0.01709348     0.66850
H942        H  0.18691140  0.96778196  0.01454338     0.15750
H943        H  0.16440670  0.86423296  0.46262625     0.15460
N944        N  0.11505290  0.90201594  0.46309416     0.74550
O945        O  0.24840694  0.95580331  0.01334533    -0.38900
O946        O  0.24531647  0.91088346  0.03877792    -0.38840
O947        O  0.10410556  0.91936944  0.44121267    -0.39540
O948        O  0.10210445  0.87546124  0.96866269    -0.39610
C949        C  0.18158948  0.64525989  0.00195916    -0.11890
C950        C  0.14993618  0.65282243  0.00833191     0.05110
C951        C  0.14324740  0.68368788  0.52022039    -0.07180
C952        C  0.16790458  0.70529411  0.52635240    -0.07920
C953        C  0.19928214  0.69834634  0.01841814    -0.02480
C954        C  0.20590957  0.66764638  0.00564595     0.04340
N955        N  0.23657010  0.65919092  0.99395081     0.66850
H956        H  0.18748942  0.62206921  0.99233788     0.15750
H957        H  0.16182055  0.72824636  0.53627275     0.15460
N958        N  0.11142344  0.69424663  0.52516403     0.74550
O959        O  0.24926898  0.63346837  0.00273053    -0.38900
O960        O  0.24813748  0.67414326  0.47059093    -0.38840
O961        O  0.10367307  0.70565601  0.05197998    -0.39540
O962        O  0.09389596  0.69937286  0.50128679    -0.39610
C963        C  0.42038307  0.70453903  0.00590811    -0.11890
C964        C  0.39148813  0.69737256  0.49087792     0.05110
C965        C  0.38698706  0.66653224  0.47800035    -0.07180
C966        C  0.41080299  0.64349275  0.48214292    -0.07920
C967        C  0.43940029  0.65063082  0.99788006    -0.02480
C968        C  0.44423686  0.68180516  0.00960736     0.04340
N969        N  0.47239334  0.69054502  0.02678568     0.66850
H970        H  0.42396512  0.72773316  0.01665854     0.15750
H971        H  0.40739473  0.62003680  0.47192529     0.15460
N972        N  0.35925880  0.65853310  0.45967655     0.74550
O973        O  0.48516662  0.71721017  0.02190616    -0.38900
O974        O  0.98173016  0.67389381  0.05003475    -0.38840
O975        O  0.34691914  0.67871977  0.44119522    -0.39540
O976        O  0.34896041  0.63031528  0.95931264    -0.39610
C977        C  0.44564899  0.91027293  0.48911907    -0.11890
C978        C  0.43990066  0.93998713  0.00304143     0.05110
C979        C  0.41095274  0.94510982  0.01907195    -0.07180
C980        C  0.38850225  0.92065919  0.02058324    -0.07920
C981        C  0.39365266  0.89123866  0.00556717    -0.02480
C982        C  0.42276002  0.88623142  0.48940900     0.04340
N983        N  0.42875041  0.85778464  0.47139924     0.66850
H984        H  0.46753607  0.90612276  0.47645306     0.15750
H985        H  0.36668338  0.92495624  0.03327949     0.15460
N986        N  0.40406733  0.97472225  0.03445585     0.74550
O987        O  0.40955751  0.84910978  0.44994375    -0.38900
O988        O  0.45546478  0.84448158  0.47313583    -0.38840
O989        O  0.39328631  0.49756964  0.01818156    -0.39540
O990        O  0.40205270  0.97576380  0.06442147    -0.39610
C991        C  0.36804866  0.86707717  0.50462197     0.03510
C992        C  0.37511031  0.83417682  0.00806983    -0.12640
C993        C  0.35404438  0.81159142  0.99565499     0.01010
C994        C  0.32785574  0.82318992  0.97881152    -0.11170
C995        C  0.31493393  0.85288451  0.48692901     0.03500
C996        C  0.33613236  0.87599739  0.49826823    -0.10590
H997        H  0.39720381  0.82652937  0.01871953     0.09090
H998        H  0.31452407  0.80748320  0.96388534     0.06620
H999        H  0.32811309  0.90025172  0.50132736     0.06470
C1000       C  0.36575012  0.72152293  0.99342139     0.03510
C1001       C  0.37338094  0.75428683  0.99042602    -0.12640
C1002       C  0.35402046  0.77714672  0.00469637     0.01010
C1003       C  0.32885292  0.76600040  0.02309843    -0.11170
C1004       C  0.31490286  0.73661481  0.51591421     0.03500
C1005       C  0.33469585  0.71314556  0.50300079    -0.10590
H1006       H  0.39470142  0.76166941  0.97833740     0.09090
H1007       H  0.31679535  0.78205798  0.03865544     0.06620
H1008       H  0.32614996  0.68897111  0.50123063     0.06470
C1009       C  0.22411899  0.72414658  0.52013395     0.03510
C1010       C  0.25692820  0.71666400  0.52428744    -0.12640
C1011       C  0.27959439  0.73716587  0.51122870     0.01010
C1012       C  0.26797709  0.76285952  0.49411023    -0.11170
C1013       C  0.23953805  0.77728057  0.50253016     0.03500
C1014       C  0.21595339  0.75669343  0.51365529    -0.10590
H1015       H  0.26440594  0.69466431  0.53531775     0.09090
H1016       H  0.28375402  0.77527924  0.47919339     0.06620
H1017       H  0.19203875  0.76549640  0.51545750     0.06470
C1018       C  0.22440615  0.86665394  0.48574026     0.03510
C1019       C  0.25709354  0.87413293  0.48140554    -0.12640
C1020       C  0.27997213  0.85308489  0.49337200     0.01010
C1021       C  0.26873953  0.82723739  0.51041998    -0.11170
C1022       C  0.23977717  0.81328833  0.50269376     0.03500
C1023       C  0.21605431  0.83424345  0.49219036    -0.10590
H1024       H  0.26430967  0.89643735  0.47088798     0.09090
H1025       H  0.28501585  0.81432426  0.52458469     0.06620
H1026       H  0.19190106  0.82595995  0.49060185     0.06470
C1027       C  0.36704592  0.55799887  0.82428910     0.03510
C1028       C  0.33513960  0.55098806  0.83192394    -0.12640
C1029       C  0.31525752  0.53897381  0.80802340     0.01010
C1030       C  0.32948271  0.53111846  0.77902815    -0.11170
C1031       C  0.35580374  0.54785905  0.76829463     0.03500
C1032       C  0.37625106  0.56007381  0.79178535    -0.10590
H1033       H  0.32645129  0.55409532  0.85595499     0.09090
H1034       H  0.31676873  0.51693301  0.76244275     0.06620
H1035       H  0.39907194  0.56962711  0.78526772     0.06470
C1036       C  0.22523638  0.53029441  0.82188126     0.03510
C1037       C  0.25832778  0.52911574  0.82928067    -0.12640
C1038       C  0.27986524  0.54187379  0.80745437     0.01010
C1039       C  0.26700147  0.55520779  0.78004490    -0.11170
C1040       C  0.23947000  0.54279869  0.76691171     0.03500
C1041       C  0.21719890  0.53123289  0.78854511    -0.10590
H1042       H  0.26720952  0.51911276  0.85120671     0.09090
H1043       H  0.28139229  0.56977927  0.76570509     0.06620
H1044       H  0.19462458  0.52361051  0.77925647     0.06470
C1045       C  0.22548805  0.55948816  0.67856255     0.03510
C1046       C  0.21665177  0.55231484  0.71062395    -0.12640
C1047       C  0.23919462  0.53910342  0.73126694     0.01010
C1048       C  0.26767778  0.52950408  0.71751718    -0.11170
C1049       C  0.28011021  0.54683291  0.69227605     0.03500
C1050       C  0.25842803  0.56215086  0.67211500    -0.10590
H1051       H  0.19296652  0.55578870  0.71941050     0.09090
H1052       H  0.28241585  0.51326998  0.73010461     0.06620
H1053       H  0.26690517  0.57458590  0.65132369     0.06470
C1054       C  0.36903017  0.53881834  0.67914159     0.03510
C1055       C  0.37815549  0.54316654  0.71166206    -0.12640
C1056       C  0.35612270  0.55546681  0.73328961     0.01010
C1057       C  0.32771889  0.56691494  0.72029565    -0.11170
C1058       C  0.31496256  0.55273587  0.69287658     0.03500
C1059       C  0.33619087  0.53830892  0.67187518    -0.10590
H1060       H  0.40178833  0.53798205  0.72005280     0.09090
H1061       H  0.31355768  0.58281971  0.73402464     0.06620
H1062       H  0.32752012  0.52823594  0.64972729     0.06470
C1063       C  0.03496883  0.72039392  0.81954045     0.03510
C1064       C  0.03682244  0.75280494  0.82897969    -0.12640
C1065       C  0.04949719  0.77488041  0.80772371     0.01010
C1066       C  0.06266752  0.76270931  0.77971712    -0.11170
C1067       C  0.05044280  0.73500082  0.76581727     0.03500
C1068       C  0.03728630  0.71262344  0.78658634    -0.10590
H1069       H  0.02993854  0.76040982  0.85261239     0.09090
H1070       H  0.07884411  0.77686658  0.76659274     0.06620
H1071       H  0.03060646  0.68930339  0.77784768     0.06470
C1072       C  0.05204905  0.86482204  0.82289177     0.03510
C1073       C  0.05453341  0.83185924  0.83004914    -0.12640
C1074       C  0.04234583  0.80976339  0.80821854     0.01010
C1075       C  0.02661946  0.82198636  0.78162116    -0.11170
C1076       C  0.03556803  0.85133916  0.76889379     0.03500
C1077       C  0.04676529  0.87404658  0.79061897    -0.10590
H1078       H  0.06421946  0.82386531  0.85257310     0.09090
H1079       H  0.01205440  0.80659181  0.76785636     0.06620
H1080       H  0.05019602  0.89827939  0.78277499     0.06470
C1081       C  0.06169250  0.72423147  0.67595405     0.03510
C1082       C  0.05994544  0.71485377  0.70840349    -0.12640
C1083       C  0.04586411  0.73556044  0.73032735     0.01010
C1084       C  0.03151042  0.76271097  0.71784108    -0.11170
C1085       C  0.04319244  0.77705732  0.69025705     0.03500
C1086       C  0.05689506  0.75669076  0.66768377    -0.10590
H1087       H  0.06773445  0.69148128  0.71585705     0.09090
H1088       H  0.01557392  0.77568903  0.73231391     0.06620
H1089       H  0.06240949  0.76528905  0.64407512     0.06470
C1090       C  0.03149857  0.86722186  0.67835634     0.03510
C1091       C  0.02963676  0.87449569  0.71156380    -0.12640
C1092       C  0.04085991  0.85202114  0.73350007     0.01010
C1093       C  0.05553600  0.82528689  0.72075378    -0.11170
C1094       C  0.04601986  0.81276011  0.69150355     0.03500
C1095       C  0.03540321  0.83478456  0.66881210    -0.10590
H1096       H  0.02150560  0.89752139  0.71974932     0.09090
H1097       H  0.06965491  0.81115783  0.73590794     0.06620
H1098       H  0.03188427  0.82730046  0.64436021     0.06470
O1099       O  0.45572491  0.99411781  0.50080315    -0.86110
O1100       O  0.13559334  0.99346267  0.49673860    -0.86280
O1101       O  0.04584484  0.95503883  0.94813205    -0.87950
O1102       O  0.04353731  0.95449470  0.55142991    -0.86700
O1103       O  0.04536846  0.99316778  0.59011898    -0.86290
O1104       O  0.04599085  0.99335985  0.90936688    -0.87660
O1105       O  0.09738210  0.95474043  0.49744268    -0.86140
O1106       O  0.49393766  0.95548509  0.49979034    -0.85730
Zr1107     Zr  0.04590016  0.98107201  0.49986805     2.84310
O1108       O  0.07876700  0.51278748  0.53231070    -1.07700
O1109       O  0.01329317  0.51270188  0.96760824    -1.08430
C1110       C  0.46480160  0.96486562  0.50098432     1.07000
C1111       C  0.12644702  0.96405108  0.49551287     1.06940
C1112       C  0.04680798  0.96412453  0.91880238     1.09920
C1113       C  0.04300552  0.96391769  0.58076703     1.07700
H1114       H  0.09044237  0.50033335  0.95439389     0.33260
O1115       O  0.07740451  0.51342296  0.96794050    -1.28660
H1116       H  0.00129272  0.49988445  0.54516046     0.32930
O1117       O  0.01437211  0.51320913  0.53199836    -1.30340
O1118       O  0.13505446  0.59823761  0.50250145    -0.86110
O1119       O  0.45523492  0.59650586  0.50044563    -0.87600
O1120       O  0.09655004  0.54432661  0.90953606    -0.86180
O1121       O  0.09784777  0.54750877  0.59015790    -0.86230
O1122       O  0.49557298  0.54332879  0.59117668    -0.85940
O1123       O  0.49376814  0.54704999  0.90969367    -0.85750
O1124       O  0.04197063  0.63574277  0.94833686    -0.86120
O1125       O  0.04710283  0.63560532  0.55200530    -0.85580
O1126       O  0.04332267  0.59674551  0.90987946    -0.86650
O1127       O  0.04795162  0.59681864  0.59054387    -0.85810
O1128       O  0.13521237  0.54709631  0.94768586    -0.86200
O1129       O  0.45565297  0.54629032  0.94857422    -0.85930
O1130       O  0.45707017  0.54270413  0.55255204    -0.85580
O1131       O  0.13603567  0.54745077  0.55178928    -0.85980
O1132       O  0.09632911  0.63626066  0.50247830    -0.86280
O1133       O  0.49347624  0.63508031  0.49980570    -0.87620
Zr1134     Zr  0.10978929  0.54572930  0.49974287     2.83100
Zr1135     Zr  0.48206697  0.54526463  0.50039566     2.83500
Zr1136     Zr  0.04526609  0.54512653  0.93585430     2.84090
Zr1137     Zr  0.04640597  0.54509292  0.56417022     2.83360
Zr1138     Zr  0.04526285  0.60953668  0.50010546     2.84220
O1139       O  0.01360843  0.57781670  0.53299691    -1.08190
O1140       O  0.07763025  0.57797558  0.96743577    -1.07690
C1141       C  0.12554651  0.62752947  0.50394484     1.06970
C1142       C  0.46435111  0.62581089  0.49981967     1.09590
C1143       C  0.12582066  0.54564010  0.91832392     1.07140
C1144       C  0.12691066  0.54881857  0.58115994     1.07500
C1145       C  0.46645314  0.54171037  0.58190627     1.07080
C1146       C  0.46483469  0.54747875  0.91930900     1.06640
C1147       C  0.04126653  0.62601557  0.91908643     1.07060
C1148       C  0.04839561  0.62604865  0.58118059     1.06580
H1149       H  0.00001105  0.59017998  0.95510427     0.33250
O1150       O  0.01348541  0.57701789  0.96818100    -1.29290
H1151       H  0.09050136  0.59052624  0.54505136     0.33280
O1152       O  0.07739174  0.57720293  0.53169560    -1.30670
C1153       C  0.01617730  0.88997116  0.62554058    -0.11890
C1154       C  0.03296734  0.89309136  0.65429183     0.05110
C1155       C  0.05276140  0.92002872  0.65879141    -0.07180
C1156       C  0.05489088  0.94300952  0.63478559    -0.07920
C1157       C  0.03872604  0.93946453  0.60578435    -0.02480
C1158       C  0.01857236  0.91289653  0.60143126     0.04340
N1159       N  0.99889399  0.90984876  0.57366838     0.66850
H1160       H  0.00048294  0.86989009  0.62206795     0.15750
H1161       H  0.07049543  0.96317750  0.63828285     0.15460
N1162       N  0.07248329  0.92354723  0.68653771     0.74550
O1163       O  0.99483169  0.88295167  0.56083079    -0.38900
O1164       O  0.98138868  0.93272497  0.56544550    -0.38840
O1165       O  0.09094613  0.90137086  0.69465049    -0.39540
O1166       O  0.07532243  0.95044916  0.69969462    -0.39610
C1167       C  0.08153240  0.66408808  0.61097436    -0.11890
C1168       C  0.05153421  0.65062243  0.60586373     0.05110
C1169       C  0.02535715  0.66157633  0.62349587    -0.07180
C1170       C  0.03015194  0.68600223  0.64576750    -0.07920
C1171       C  0.06008577  0.69952091  0.65104490    -0.02480
C1172       C  0.08637892  0.68864266  0.63340166     0.04340
N1173       N  0.11772911  0.70164487  0.63782351     0.66850
H1174       H  0.10126158  0.65539229  0.59706224     0.15750
H1175       H  0.51026460  0.69456665  0.65953581     0.15460
N1176       N  0.49390713  0.64893125  0.61892932     0.74550
O1177       O  0.14137610  0.68777008  0.62588671    -0.38900
O1178       O  0.12208201  0.72753479  0.65249305    -0.38840
O1179       O  0.48961736  0.62074003  0.60944352    -0.39540
O1180       O  0.47007331  0.66537359  0.62642936    -0.39610
C1181       C  0.03520201  0.90923236  0.90024079    -0.11890
C1182       C  0.04949774  0.93871330  0.89439812     0.05110
C1183       C  0.06632002  0.94295152  0.86571183    -0.07180
C1184       C  0.06776339  0.91817037  0.84341669    -0.07920
C1185       C  0.05257135  0.88908956  0.84869389    -0.02480
C1186       C  0.03592849  0.88468231  0.87762516     0.04340
N1187       N  0.01787785  0.85646069  0.88371948     0.66850
H1188       H  0.02198411  0.90571320  0.92199713     0.15750
H1189       H  0.08124578  0.92164813  0.82184707     0.15460
N1190       N  0.08291990  0.97177434  0.85903766     0.74550
O1191       O  0.01903885  0.84366026  0.91086642    -0.38900
O1192       O  0.99696326  0.84753588  0.86408176    -0.38840
O1193       O  0.10309335  0.98220504  0.87868528    -0.39540
O1194       O  0.08008853  0.48375833  0.83100999    -0.39610
C1195       C  0.01409851  0.69710186  0.86998520    -0.11890
C1196       C  0.03489730  0.69513142  0.84406239     0.05110
C1197       C  0.05760896  0.67038789  0.84327838    -0.07180
C1198       C  0.05843216  0.64807819  0.86781754    -0.07920
C1199       C  0.03793549  0.65004225  0.89374038    -0.02480
C1200       C  0.01518185  0.67470789  0.89479523     0.04340
N1201       N  0.99243108  0.67672181  0.92003093     0.66850
H1202       H  0.99660888  0.71591888  0.87066424     0.15750
H1203       H  0.07650867  0.62997934  0.86753901     0.15460
N1204       N  0.08148240  0.66872262  0.81910055     0.74550
O1205       O  0.48286564  0.70363133  0.92963349    -0.38900
O1206       O  0.47867681  0.65206157  0.92969852    -0.38840
O1207       O  0.09851730  0.69267111  0.81343317    -0.39540
O1208       O  0.08912337  0.64212637  0.80739216    -0.39610
C1209       C  0.42304624  0.52384930  0.65941036    -0.11890
C1210       C  0.39307940  0.53699682  0.65316059     0.05110
C1211       C  0.38748883  0.55060942  0.62265420    -0.07180
C1212       C  0.41138976  0.55047478  0.59979165    -0.07920
C1213       C  0.44161150  0.53860710  0.60658393    -0.02480
C1214       C  0.44732531  0.52482111  0.63679819     0.04340
N1215       N  0.47720117  0.51078334  0.64471292     0.66850
H1216       H  0.42781241  0.51234850  0.68194177     0.15750
H1217       H  0.40666860  0.56153120  0.57696453     0.15460
N1218       N  0.35866008  0.56686029  0.61491626     0.74550
O1219       O  0.49012348  0.51682867  0.67122690    -0.38900
O1220       O  0.98791018  0.48845555  0.62778837    -0.38840
O1221       O  0.35072254  0.59127679  0.63052339    -0.39540
O1222       O  0.34422116  0.56028257  0.58933296    -0.39610
C1223       C  0.18348947  0.54792588  0.59808026    -0.11890
C1224       C  0.15176530  0.55295464  0.60622979     0.05110
C1225       C  0.14489755  0.56309038  0.63768973    -0.07210
C1226       C  0.16953785  0.56814374  0.65960466    -0.07920
C1227       C  0.20117109  0.56081709  0.65226167    -0.02480
C1228       C  0.20790194  0.55072118  0.62057549     0.04340
N1229       N  0.23884821  0.54098178  0.61091183     0.66850
H1230       H  0.18947584  0.54005388  0.57425518     0.15750
H1231       H  0.16328419  0.57674079  0.68301896     0.15460
N1232       N  0.11309418  0.56733667  0.64845213     0.74550
O1233       O  0.25024244  0.51523858  0.62127009    -0.38900
O1234       O  0.25183718  0.55447754  0.58756858    -0.38840
O1235       O  0.09634679  0.54315275  0.65401800    -0.39540
O1236       O  0.10461133  0.59397177  0.65941537    -0.39610
C1237       C  0.16798025  0.53617981  0.83832031    -0.11890
C1238       C  0.20010021  0.53374193  0.84747812     0.05110
C1239       C  0.20711793  0.53942916  0.88032938    -0.07180
C1240       C  0.18258225  0.54214591  0.90251454    -0.07920
C1241       C  0.15074616  0.54402507  0.89311329    -0.02480
C1242       C  0.14384125  0.54343630  0.86002117     0.04340
N1243       N  0.11355070  0.55305383  0.84753211     0.66850
H1244       H  0.16116181  0.53514065  0.81364762     0.15750
H1245       H  0.18888877  0.54482050  0.92742549     0.15460
N1246       N  0.23833849  0.54655950  0.89157723     0.74550
O1247       O  0.10407731  0.54241080  0.82100046    -0.38900
O1248       O  0.10064822  0.57785761  0.85829749    -0.38840
O1249       O  0.25147825  0.57200028  0.88278208    -0.39540
O1250       O  0.24934879  0.53196743  0.91541710    -0.39610
C1251       C  0.39838022  0.52714250  0.86240282    -0.11890
C1252       C  0.39121825  0.55718769  0.84971158     0.05110
C1253       C  0.40847745  0.58417297  0.85989641    -0.07180
C1254       C  0.43295142  0.57996246  0.88236514    -0.07920
C1255       C  0.44014753  0.54981451  0.89477920    -0.02480
C1256       C  0.42281842  0.52291618  0.88467203     0.04340
N1257       N  0.42987515  0.99111122  0.89630331     0.66850
H1258       H  0.38527765  0.00620819  0.85411671     0.15750
H1259       H  0.44619359  0.60040568  0.89081597     0.15460
N1260       N  0.40121954  0.61569030  0.84846584     0.74550
O1261       O  0.40910378  0.96957526  0.89510280    -0.38900
O1262       O  0.45752526  0.98373215  0.90502684    -0.38840
O1263       O  0.37408298  0.62229602  0.83771044    -0.39540
O1264       O  0.42112148  0.63786902  0.85161854    -0.39610
C1265       C  0.18198667  0.94538997  0.50276125    -0.11890
C1266       C  0.15136298  0.93920997  0.49137740     0.05110
C1267       C  0.14517035  0.90927252  0.97686910    -0.07180
C1268       C  0.16940005  0.88652810  0.97450670    -0.07920
C1269       C  0.19996367  0.89244906  0.48655321    -0.02480
C1270       C  0.20597432  0.92236442  0.50130377     0.04340
N1271       N  0.23541953  0.92916322  0.51705202     0.66850
H1272       H  0.18698916  0.96782764  0.51452413     0.15750
H1273       H  0.16432654  0.86419731  0.96262775     0.15460
N1274       N  0.11496153  0.90195538  0.96314608     0.74550
O1275       O  0.24847724  0.95587475  0.51329188    -0.38900
O1276       O  0.24543277  0.91095804  0.53873447    -0.38840
O1277       O  0.10400634  0.91927734  0.94124419    -0.39540
O1278       O  0.10219024  0.87551667  0.46857279    -0.39610
C1279       C  0.18183372  0.64521717  0.50209281    -0.11890
C1280       C  0.15016395  0.65276910  0.50843820     0.05110
C1281       C  0.14303485  0.68374037  0.02011846    -0.07180
C1282       C  0.16769571  0.70536109  0.02618154    -0.07920
C1283       C  0.19948775  0.69831504  0.51856776    -0.02480
C1284       C  0.20613853  0.66763284  0.50576173     0.04340
N1285       N  0.23678330  0.65925958  0.49395598     0.66850
H1286       H  0.18774771  0.62203423  0.49246177     0.15750
H1287       H  0.16161883  0.72831708  0.03609868     0.15460
N1288       N  0.11122414  0.69423786  0.02524514     0.74550
O1289       O  0.24955849  0.63353888  0.50262856    -0.38900
O1290       O  0.24800868  0.67397995  0.97056833    -0.38840
O1291       O  0.10386142  0.70612962  0.55169460    -0.39540
O1292       O  0.09367572  0.69973880  0.00146922    -0.39610
C1293       C  0.42045275  0.70455862  0.50588437    -0.11890
C1294       C  0.39142008  0.69734023  0.99089937     0.05110
C1295       C  0.38695394  0.66651051  0.97798490    -0.07180
C1296       C  0.41079343  0.64349005  0.98210389    -0.07920
C1297       C  0.43941538  0.65062394  0.49791119    -0.02480
C1298       C  0.44427942  0.68180379  0.50961434     0.04340
N1299       N  0.47243663  0.69053018  0.52679872     0.66850
H1300       H  0.42405375  0.72775970  0.51661354     0.15750
H1301       H  0.40740669  0.62004100  0.97186297     0.15460
N1302       N  0.35924081  0.65850622  0.95964124     0.74550
O1303       O  0.48522828  0.71718590  0.52191643    -0.38900
O1304       O  0.98169649  0.67397311  0.55007020    -0.38840
O1305       O  0.34690513  0.67869568  0.94116037    -0.39540
O1306       O  0.34895494  0.63035062  0.45937944    -0.39610
C1307       C  0.44558166  0.91019953  0.98916115    -0.11890
C1308       C  0.43995717  0.94005559  0.50300344     0.05110
C1309       C  0.41101066  0.94516774  0.51903663    -0.07180
C1310       C  0.38856511  0.92071290  0.52053927    -0.07920
C1311       C  0.39372370  0.89129762  0.50551523    -0.02480
C1312       C  0.42268410  0.88616430  0.98945578     0.04340
N1313       N  0.42865760  0.85771711  0.97144118     0.66850
H1314       H  0.46746585  0.90604128  0.97649291     0.15750
H1315       H  0.36674598  0.92500127  0.53323781     0.15460
N1316       N  0.40412568  0.97477183  0.53443623     0.74550
O1317       O  0.40945356  0.84905157  0.94999194    -0.38900
O1318       O  0.45536724  0.84440338  0.97316700    -0.38840
O1319       O  0.39332412  0.49756268  0.51826980    -0.39540
O1320       O  0.40213987  0.97580418  0.56440421    -0.39610
C1321       C  0.86796916  0.36700350  0.00464398     0.03510
C1322       C  0.87521463  0.33422217  0.50800923    -0.12640
C1323       C  0.85415538  0.31163618  0.49559091     0.01010
C1324       C  0.82793874  0.32322793  0.47878530    -0.11170
C1325       C  0.81485723  0.35281739  0.98693886     0.03500
C1326       C  0.83605487  0.37592801  0.99828590    -0.10590
H1327       H  0.89731401  0.32657736  0.51864869     0.09090
H1328       H  0.81459480  0.30751665  0.46387462     0.06620
H1329       H  0.82803792  0.40018298  0.00134643     0.06470
C1330       C  0.86584878  0.22156610  0.49338316     0.03510
C1331       C  0.87348774  0.25432642  0.49036294    -0.12640
C1332       C  0.85414453  0.27719772  0.50464224     0.01010
C1333       C  0.82899686  0.26606891  0.52307731    -0.11170
C1334       C  0.81483686  0.23654192  0.01590672     0.03500
C1335       C  0.83463489  0.21307717  0.00299070    -0.10590
H1336       H  0.89479984  0.26169617  0.47825176     0.09090
H1337       H  0.81695788  0.28213994  0.53863508     0.06620
H1338       H  0.82609369  0.18890136  0.00121551     0.06470
C1339       C  0.72406085  0.22407202  0.02013781     0.03510
C1340       C  0.75686953  0.21659423  0.02428893    -0.12640
C1341       C  0.77952995  0.23709229  0.01121879     0.01010
C1342       C  0.76790839  0.26278584  0.99410033    -0.11170
C1343       C  0.73946739  0.27720517  0.00252223     0.03500
C1344       C  0.71588840  0.25661619  0.01365485    -0.10590
H1345       H  0.76435119  0.19459811  0.03532389     0.09090
H1346       H  0.78368334  0.27520669  0.97918210     0.06620
H1347       H  0.69197269  0.26541567  0.01545971     0.06470
C1348       C  0.72432862  0.36658700  0.98575452     0.03510
C1349       C  0.75701625  0.37406413  0.98141737    -0.12640
C1350       C  0.77989508  0.35301426  0.99337943     0.01010
C1351       C  0.76866335  0.32716212  0.01042040    -0.11170
C1352       C  0.73970205  0.31321407  0.00269060     0.03500
C1353       C  0.71597663  0.33417368  0.99219633    -0.10590
H1354       H  0.76423295  0.39636977  0.97090284     0.09090
H1355       H  0.78494032  0.31424571  0.02458155     0.06620
H1356       H  0.69182297  0.32589149  0.99060744     0.06470
C1357       C  0.86703867  0.05798381  0.32429063     0.03510
C1358       C  0.83513136  0.05097603  0.33192710    -0.12640
C1359       C  0.81524455  0.03897214  0.30802442     0.01010
C1360       C  0.82946670  0.03111954  0.27902754    -0.11170
C1361       C  0.85578340  0.04786435  0.26829312     0.03500
C1362       C  0.87623771  0.06006883  0.29178463    -0.10590
H1363       H  0.82644577  0.05407889  0.35595969     0.09090
H1364       H  0.81675024  0.01693771  0.26244095     0.06620
H1365       H  0.89905818  0.06962201  0.28526563     0.06470
C1366       C  0.72522259  0.03032342  0.32189012     0.03510
C1367       C  0.75831342  0.02913580  0.32928906    -0.12640
C1368       C  0.77985235  0.04187621  0.30745518     0.01010
C1369       C  0.76698817  0.05519983  0.28004052    -0.11170
C1370       C  0.73945309  0.04279072  0.26691473     0.03500
C1371       C  0.71718270  0.03123944  0.28855484    -0.10590
H1372       H  0.76719328  0.01914191  0.35121992     0.09090
H1373       H  0.78137930  0.06976228  0.26569380     0.06620
H1374       H  0.69460563  0.02361465  0.27927417     0.06470
C1375       C  0.72544808  0.05946042  0.17856647     0.03510
C1376       C  0.71661863  0.05228930  0.21063036    -0.12640
C1377       C  0.73916930  0.03908791  0.23127147     0.01010
C1378       C  0.76765212  0.02949468  0.21751817    -0.11170
C1379       C  0.78007738  0.04683055  0.19227947     0.03500
C1380       C  0.75838735  0.06213647  0.17211638    -0.10590
H1381       H  0.69293370  0.05575709  0.21942013     0.09090
H1382       H  0.78239645  0.01326504  0.23010421     0.06620
H1383       H  0.76685802  0.07457120  0.15132223     0.06470
C1384       C  0.86899372  0.03881712  0.17914041     0.03510
C1385       C  0.87812415  0.04317000  0.21165845    -0.12640
C1386       C  0.85609603  0.05547436  0.23328761     0.01010
C1387       C  0.82768952  0.06692110  0.22029498    -0.11170
C1388       C  0.81492911  0.05273979  0.19287734     0.03500
C1389       C  0.83615448  0.03830826  0.17187717    -0.10590
H1390       H  0.90175810  0.03798575  0.22004621     0.09090
H1391       H  0.81353414  0.08283521  0.23401976     0.06620
H1392       H  0.82748155  0.02823249  0.14973134     0.06470
C1393       C  0.53492309  0.22046874  0.31949750     0.03510
C1394       C  0.53680548  0.25287714  0.32893240    -0.12640
C1395       C  0.54950735  0.27493635  0.30767903     0.01010
C1396       C  0.56266788  0.26275175  0.27967175    -0.11170
C1397       C  0.55042498  0.23504775  0.26577554     0.03500
C1398       C  0.53724328  0.21268758  0.28654658    -0.10590
H1399       H  0.52992492  0.26049104  0.35256337     0.09090
H1400       H  0.57885203  0.27689727  0.26654355     0.06620
H1401       H  0.53054888  0.18936992  0.27781288     0.06470
C1402       C  0.55209023  0.36487853  0.32284998     0.03510
C1403       C  0.55456908  0.33191435  0.33000520    -0.12640
C1404       C  0.54237645  0.30982187  0.30817310     0.01010
C1405       C  0.52664886  0.32204732  0.28158030    -0.11170
C1406       C  0.53560754  0.35139358  0.26885139     0.03500
C1407       C  0.54680995  0.37410233  0.29057554    -0.10590
H1408       H  0.56425296  0.32391714  0.35252887     0.09090
H1409       H  0.51207815  0.30665628  0.26781711     0.06620
H1410       H  0.55024710  0.39833396  0.28273069     0.06470
C1411       C  0.56164958  0.22425169  0.17590664     0.03510
C1412       C  0.55990724  0.21488280  0.20835995    -0.12640
C1413       C  0.54584529  0.23560332  0.23028527     0.01010
C1414       C  0.53150375  0.26275880  0.21779918    -0.11170
C1415       C  0.54318757  0.27709443  0.19021214     0.03500
C1416       C  0.55686748  0.25671441  0.16763364    -0.10590
H1417       H  0.56768660  0.19150808  0.21581650     0.09090
H1418       H  0.51557920  0.27574882  0.23227511     0.06620
H1419       H  0.56238015  0.26530656  0.14402236     0.06470
C1420       C  0.53149357  0.36725578  0.17832130     0.03510
C1421       C  0.52964776  0.37453207  0.21152685    -0.12640
C1422       C  0.54089095  0.35206566  0.23345733     0.01010
C1423       C  0.55555744  0.32532520  0.22070633    -0.11170
C1424       C  0.54602930  0.31279712  0.19145775     0.03500
C1425       C  0.53539745  0.33482042  0.16877350    -0.10590
H1426       H  0.52151751  0.39755742  0.21971465     0.09090
H1427       H  0.56967955  0.31119446  0.23585676     0.06620
H1428       H  0.53186598  0.32733719  0.14432306     0.06470
O1429       O  0.95568541  0.49400018  0.00080655    -0.86110
O1430       O  0.63556627  0.49344658  0.99673804    -0.86280
O1431       O  0.54591975  0.45507414  0.44812360    -0.87950
O1432       O  0.54351353  0.45452751  0.05141935    -0.86700
O1433       O  0.54535820  0.49320135  0.09010759    -0.86290
O1434       O  0.54604805  0.49339873  0.40936095    -0.87660
O1435       O  0.59734024  0.45474015  0.99744101    -0.86140
O1436       O  0.99389694  0.45536629  0.99979719    -0.85730
Zr1437     Zr  0.54587456  0.48109902  0.99986250     2.84310
O1438       O  0.57871273  0.01272006  0.03231366    -1.07700
O1439       O  0.51332190  0.01282832  0.46760626    -1.08430
C1440       C  0.96476040  0.46474879  0.00099214     1.07000
C1441       C  0.62640889  0.46403734  0.99551313     1.06940
C1442       C  0.54687689  0.46416252  0.41879347     1.09920
C1443       C  0.54298864  0.46395261  0.08075455     1.07700
H1444       H  0.59046670  0.00044383  0.45437830     0.33260
O1445       O  0.57743034  0.01353434  0.46792636    -1.28660
H1446       H  0.50124123  0.99983617  0.04516091     0.32930
O1447       O  0.51432447  0.01315683  0.03199875    -1.30340
O1448       O  0.63502171  0.09815147  0.00250602    -0.86110
O1449       O  0.95520678  0.09648567  0.00044002    -0.87600
O1450       O  0.59655567  0.04448034  0.40952045    -0.86180
O1451       O  0.59780253  0.04744917  0.09016120    -0.86230
O1452       O  0.99552716  0.04330624  0.09117375    -0.85940
O1453       O  0.99376792  0.04701831  0.40969795    -0.85750
O1454       O  0.54202428  0.13590052  0.44834833    -0.86120
O1455       O  0.54707687  0.13555379  0.05200075    -0.85580
O1456       O  0.54330952  0.09689041  0.40989974    -0.86650
O1457       O  0.54791589  0.09677374  0.09054484    -0.85810
O1458       O  0.63521495  0.04720089  0.44767638    -0.86200
O1459       O  0.95565585  0.04626756  0.44858131    -0.85930
O1460       O  0.95702563  0.04269057  0.05254784    -0.85580
O1461       O  0.63599364  0.04736723  0.05179597    -0.85980
O1462       O  0.59630095  0.13617941  0.00247207    -0.86280
O1463       O  0.99345199  0.13505718  0.99979849    -0.87620
Zr1464     Zr  0.60974967  0.04564734  0.99974694     2.83100
Zr1465     Zr  0.98202627  0.04524441  0.00039356     2.83500
Zr1466     Zr  0.54528847  0.04525757  0.43585241     2.84090
Zr1467     Zr  0.54636197  0.04504292  0.06416941     2.83360
Zr1468     Zr  0.54523426  0.10947294  0.00010487     2.84220
O1469       O  0.51356815  0.07776419  0.03299351    -1.08190
O1470       O  0.57768387  0.07808579  0.46742988    -1.07690
C1471       C  0.62551532  0.12744408  0.00394445     1.06970
C1472       C  0.96432537  0.12578883  0.99981061     1.09590
C1473       C  0.62582409  0.04577454  0.41831331     1.07140
C1474       C  0.62686685  0.04874655  0.08116583     1.07500
C1475       C  0.96640765  0.04169383  0.08190212     1.07080
C1476       C  0.96483450  0.04745224  0.41931441     1.06640
C1477       C  0.54127527  0.12616433  0.41910148     1.07060
C1478       C  0.54836539  0.12600366  0.08117865     1.06580
H1479       H  0.50006226  0.09031034  0.45512172     0.33250
O1480       O  0.51353755  0.07714634  0.46819674    -1.29290
H1481       H  0.59046991  0.09045807  0.04505113     0.33280
O1482       O  0.57735911  0.07713642  0.03169491    -1.30670
C1483       C  0.51615377  0.39001371  0.12551999    -0.11890
C1484       C  0.53295841  0.39312530  0.15426259     0.05110
C1485       C  0.55276222  0.42005530  0.15876079    -0.07180
C1486       C  0.55488792  0.44303896  0.13476048    -0.07920
C1487       C  0.53870923  0.43950199  0.10576756    -0.02480
C1488       C  0.51854518  0.41294248  0.10141581     0.04340
N1489       N  0.49885484  0.40990741  0.07366013     0.66850
H1490       H  0.50045256  0.36993743  0.12205072     0.15750
H1491       H  0.57050042  0.46320142  0.13825413     0.15460
N1492       N  0.57249739  0.42356251  0.18649887     0.74550
O1493       O  0.49478484  0.38301587  0.06081329    -0.38900
O1494       O  0.48135059  0.43278966  0.06545171    -0.38840
O1495       O  0.59096323  0.40138228  0.19459403    -0.39540
O1496       O  0.57534407  0.45045951  0.19966436    -0.39610
C1497       C  0.58150031  0.16405547  0.11096948    -0.11890
C1498       C  0.55150302  0.15058708  0.10585834     0.05110
C1499       C  0.52532210  0.16156082  0.12347362    -0.07180
C1500       C  0.53011088  0.18600881  0.14572464    -0.07920
C1501       C  0.56004348  0.19953119  0.15100152    -0.02480
C1502       C  0.58634108  0.18863125  0.13337678     0.04340
N1503       N  0.61769085  0.20163396  0.13779683     0.66850
H1504       H  0.60123353  0.15534737  0.09707089     0.15750
H1505       H  0.01024609  0.19449146  0.15958693     0.15460
N1506       N  0.99388340  0.14888273  0.11895181     0.74550
O1507       O  0.64134281  0.18773366  0.12589944    -0.38900
O1508       O  0.62203765  0.22755287  0.15241641    -0.38840
O1509       O  0.98959138  0.12069742  0.10944934    -0.39540
O1510       O  0.97005098  0.16532170  0.12646354    -0.39610
C1511       C  0.53526255  0.40927642  0.40021537    -0.11890
C1512       C  0.54956757  0.43875459  0.39438290     0.05110
C1513       C  0.56639001  0.44299641  0.36569593    -0.07180
C1514       C  0.56781659  0.41822317  0.34338792    -0.07920
C1515       C  0.55261608  0.38914486  0.34865656    -0.02480
C1516       C  0.53597720  0.38473395  0.37759003     0.04340
N1517       N  0.51791874  0.35651606  0.38367799     0.66850
H1518       H  0.52204528  0.40575450  0.42197163     0.15750
H1519       H  0.58129695  0.42170221  0.32181729     0.15460
N1520       N  0.58301214  0.47181102  0.35903705     0.74550
O1521       O  0.51907765  0.34370798  0.41082136    -0.38900
O1522       O  0.49700190  0.34760111  0.36403822    -0.38840
O1523       O  0.60315944  0.48224166  0.37871213    -0.39540
O1524       O  0.58014453  0.98383864  0.33095888    -0.39610
C1525       C  0.51404890  0.19719674  0.36994793    -0.11890
C1526       C  0.53484959  0.19521759  0.34402750     0.05110
C1527       C  0.55757667  0.17048972  0.34326365    -0.07180
C1528       C  0.55842041  0.14820692  0.36782446    -0.07920
C1529       C  0.53792522  0.15017904  0.39374697    -0.02480
C1530       C  0.51514902  0.17482601  0.39477917     0.04340
N1531       N  0.49239241  0.17684242  0.42000955     0.66850
H1532       H  0.49654822  0.21600416  0.37060949     0.15750
H1533       H  0.57651085  0.13012225  0.36756137     0.15460
N1534       N  0.58144660  0.16881669  0.31908360     0.74550
O1535       O  0.98284806  0.20358108  0.42965582    -0.38900
O1536       O  0.97866623  0.15201058  0.42970146    -0.38840
O1537       O  0.59848241  0.19276265  0.31340877    -0.39540
O1538       O  0.58908618  0.14221627  0.30738401    -0.39610
C1539       C  0.92300268  0.02383725  0.15940550    -0.11890
C1540       C  0.89303847  0.03699036  0.15315756     0.05110
C1541       C  0.88744690  0.05060353  0.12265172    -0.07180
C1542       C  0.91134583  0.05046461  0.09978744    -0.07920
C1543       C  0.94156615  0.03859297  0.10657884    -0.02480
C1544       C  0.94727992  0.02480592  0.13679244     0.04340
N1545       N  0.97715423  0.01076462  0.14470594     0.66850
H1546       H  0.92776839  0.01233547  0.18193657     0.15750
H1547       H  0.90662509  0.06152157  0.07696050     0.15460
N1548       N  0.85862000  0.06685926  0.11491651     0.74550
O1549       O  0.99008233  0.01681560  0.17121580    -0.38900
O1550       O  0.48785574  0.98841370  0.12779081    -0.38840
O1551       O  0.85068675  0.09127586  0.13052575    -0.39540
O1552       O  0.84417825  0.06028497  0.08933395    -0.39610
C1553       C  0.68344677  0.04786772  0.09808794    -0.11890
C1554       C  0.65172074  0.05288560  0.10623743     0.05110
C1555       C  0.64485060  0.06301894  0.13769790    -0.07210
C1556       C  0.66949023  0.06808373  0.15961170    -0.07920
C1557       C  0.70112689  0.06077238  0.15226738    -0.02480
C1558       C  0.70785947  0.05067541  0.12058196     0.04340
N1559       N  0.73880937  0.04094882  0.11091761     0.66850
H1560       H  0.68943562  0.03999731  0.07426302     0.15750
H1561       H  0.66323386  0.07667893  0.18302588     0.15460
N1562       N  0.61304594  0.06725235  0.14846183     0.74550
O1563       O  0.75021639  0.01521284  0.12127970    -0.38900
O1564       O  0.75179038  0.05444674  0.08757111    -0.38840
O1565       O  0.59630477  0.04306199  0.15401908    -0.39540
O1566       O  0.60455399  0.09388225  0.15943057    -0.39610
C1567       C  0.66797505  0.03629300  0.33831860    -0.11890
C1568       C  0.70009114  0.03381891  0.34748179     0.05110
C1569       C  0.70711432  0.03951756  0.38032962    -0.07180
C1570       C  0.68258154  0.04226755  0.40251135    -0.07920
C1571       C  0.65074838  0.04416266  0.39310692    -0.02480
C1572       C  0.64384269  0.04357447  0.36001626     0.04340
N1573       N  0.61355844  0.05321102  0.34752736     0.66850
H1574       H  0.66115685  0.03526017  0.31364526     0.15750
H1575       H  0.68888903  0.04494671  0.42742163     0.15460
N1576       N  0.73834099  0.04662135  0.39157653     0.74550
O1577       O  0.60406559  0.04255432  0.32100822    -0.38900
O1578       O  0.60067926  0.07803201  0.35828139    -0.38840
O1579       O  0.75150407  0.07204801  0.38277606    -0.39540
O1580       O  0.74933558  0.03202629  0.41542183    -0.39610
C1581       C  0.89837563  0.02712271  0.36240336    -0.11890
C1582       C  0.89121474  0.05716858  0.34971235     0.05110
C1583       C  0.90847566  0.08415209  0.35990007    -0.07180
C1584       C  0.93294922  0.07993923  0.38237011    -0.07920
C1585       C  0.94014446  0.04979063  0.39478412    -0.02480
C1586       C  0.92281363  0.02289400  0.38467386     0.04340
N1587       N  0.92991121  0.49113561  0.39633884     0.66850
H1588       H  0.88530504  0.50620483  0.35415094     0.15750
H1589       H  0.94619210  0.10038156  0.39082181     0.15460
N1590       N  0.90121968  0.11567053  0.34847135     0.74550
O1591       O  0.90914053  0.46959809  0.39515816    -0.38900
O1592       O  0.95756493  0.48376282  0.40505610    -0.38840
O1593       O  0.87408327  0.12227886  0.33771717    -0.39540
O1594       O  0.92112342  0.13784756  0.35162436    -0.39610
C1595       C  0.68193998  0.44534585  0.00276655    -0.11890
C1596       C  0.65131326  0.43918054  0.99138376     0.05110
C1597       C  0.64526713  0.40934223  0.47685561    -0.07180
C1598       C  0.66948944  0.38658411  0.47452028    -0.07920
C1599       C  0.69989035  0.39238872  0.98657471    -0.02480
C1600       C  0.70591480  0.42230536  0.00131801     0.04340
N1601       N  0.73536163  0.42909134  0.01706852     0.66850
H1602       H  0.68695454  0.46778445  0.01452235     0.15750
H1603       H  0.66441199  0.36424612  0.46265670     0.15460
N1604       N  0.61506512  0.40203523  0.46311204     0.74550
O1605       O  0.74843504  0.45579442  0.01330416    -0.38900
O1606       O  0.74536466  0.41088284  0.03875292    -0.38840
O1607       O  0.60412149  0.41937113  0.44121514    -0.39540
O1608       O  0.60210423  0.37550336  0.96861424    -0.39610
C1609       C  0.68179788  0.14513443  0.00209944    -0.11890
C1610       C  0.65012777  0.15268314  0.00844124     0.05110
C1611       C  0.64325572  0.18368658  0.52022381    -0.07180
C1612       C  0.66791310  0.20529301  0.52635263    -0.07920
C1613       C  0.69943829  0.19823553  0.01857371    -0.02480
C1614       C  0.70609700  0.16755454  0.00576821     0.04340
N1615       N  0.73674279  0.15918774  0.99396061     0.66850
H1616       H  0.68771582  0.12195216  0.99246912     0.15750
H1617       H  0.66182886  0.22824672  0.53626921     0.15460
N1618       N  0.61143218  0.19424842  0.52516367     0.74550
O1619       O  0.74952366  0.13346971  0.00263276    -0.38900
O1620       O  0.74814379  0.17412438  0.47059558    -0.38840
O1621       O  0.60380598  0.20603768  0.05168501    -0.39540
O1622       O  0.59390825  0.19937634  0.50128416    -0.39610
C1623       C  0.92039786  0.20451894  0.00588135    -0.11890
C1624       C  0.89149862  0.19736740  0.49086407     0.05110
C1625       C  0.88699837  0.16652846  0.47798300    -0.07180
C1626       C  0.91081414  0.14348825  0.48212420    -0.07920
C1627       C  0.93938581  0.15059653  0.99789628    -0.02480
C1628       C  0.94423579  0.18177498  0.00960629     0.04340
N1629       N  0.97238857  0.19050936  0.02679398     0.66850
H1630       H  0.92398808  0.22771932  0.01661567     0.15750
H1631       H  0.90740536  0.12003322  0.47190462     0.15460
N1632       N  0.85927119  0.15853155  0.45965662     0.74550
O1633       O  0.98516772  0.21717267  0.02191979    -0.38900
O1634       O  0.48168772  0.17390700  0.05007090    -0.38840
O1635       O  0.84693368  0.17872007  0.44117588    -0.39540
O1636       O  0.84893391  0.13028540  0.95936418    -0.39610
C1637       C  0.94566612  0.41025369  0.48914351    -0.11890
C1638       C  0.93990922  0.43994645  0.00301868     0.05110
C1639       C  0.91096481  0.44507273  0.01905365    -0.07180
C1640       C  0.88850703  0.42062996  0.02055594    -0.07920
C1641       C  0.89365129  0.39121411  0.00553073    -0.02480
C1642       C  0.92277354  0.38621608  0.48942802     0.04340
N1643       N  0.92875910  0.35777301  0.47141084     0.66850
H1644       H  0.96755196  0.40610354  0.47647531     0.15750
H1645       H  0.86668994  0.42492805  0.03325496     0.15460
N1646       N  0.90409301  0.47467948  0.03445455     0.74550
O1647       O  0.90956575  0.34910815  0.44995173    -0.38900
O1648       O  0.95547049  0.34446371  0.47314571    -0.38840
O1649       O  0.89329869  0.99754912  0.01825064    -0.39540
O1650       O  0.90209407  0.47570754  0.06442173    -0.39610
C1651       C  0.86806027  0.36706729  0.50463769     0.03510
C1652       C  0.87512175  0.33416007  0.00802486    -0.12640
C1653       C  0.85406811  0.31157351  0.99560100     0.01010
C1654       C  0.82785648  0.32316160  0.97878547    -0.11170
C1655       C  0.81494354  0.35288429  0.48694356     0.03500
C1656       C  0.83614463  0.37599235  0.49828752    -0.10590
H1657       H  0.89721902  0.32651675  0.01866998     0.09090
H1658       H  0.81451648  0.30744767  0.96387381     0.06620
H1659       H  0.82812789  0.40024674  0.50135298     0.06470
C1660       C  0.86577789  0.22151071  0.99338973     0.03510
C1661       C  0.87340816  0.25427191  0.99036893    -0.12640
C1662       C  0.85406190  0.27713709  0.00465151     0.01010
C1663       C  0.82891769  0.26600351  0.02308771    -0.11170
C1664       C  0.81490951  0.23660933  0.51589820     0.03500
C1665       C  0.83470313  0.21314046  0.50298333    -0.10590
H1666       H  0.89471777  0.26164733  0.97825669     0.09090
H1667       H  0.81687453  0.28207202  0.03864540     0.06620
H1668       H  0.82615638  0.18896664  0.50120879     0.06470
C1669       C  0.72412689  0.22414520  0.52012964     0.03510
C1670       C  0.75693631  0.21666239  0.52427729    -0.12640
C1671       C  0.77960055  0.23716367  0.51121560     0.01010
C1672       C  0.76798143  0.26286236  0.49410458    -0.11170
C1673       C  0.73954326  0.27728307  0.50253055     0.03500
C1674       C  0.71596033  0.25669348  0.51365597    -0.10590
H1675       H  0.76441591  0.19466310  0.53530708     0.09090
H1676       H  0.78375664  0.27528458  0.47918820     0.06620
H1677       H  0.69204630  0.26549674  0.51546358     0.06470
C1678       C  0.72441656  0.36666607  0.48576133     0.03510
C1679       C  0.75710517  0.37414055  0.48142676    -0.12640
C1680       C  0.77998177  0.35308706  0.49338779     0.01010
C1681       C  0.76874707  0.32723709  0.51043046    -0.11170
C1682       C  0.73978339  0.31329232  0.50270217     0.03500
C1683       C  0.71606163  0.33425391  0.49220551    -0.10590
H1684       H  0.76432435  0.39644456  0.47091053     0.09090
H1685       H  0.78502249  0.31431932  0.52459199     0.06620
H1686       H  0.69190776  0.32597281  0.49061532     0.06470
C1687       C  0.86695525  0.05760197  0.82431905     0.03510
C1688       C  0.83504707  0.05060042  0.83194208    -0.12640
C1689       C  0.81515717  0.03861643  0.80803325     0.01010
C1690       C  0.82938134  0.03077712  0.77901953    -0.11170
C1691       C  0.85572855  0.04750862  0.76831049     0.03500
C1692       C  0.87617049  0.05969106  0.79182189    -0.10590
H1693       H  0.82635018  0.05372787  0.85596752     0.09090
H1694       H  0.81665632  0.01661119  0.76241748     0.06620
H1695       H  0.89899189  0.06925421  0.78531991     0.06470
C1696       C  0.72503268  0.03051485  0.82175087     0.03510
C1697       C  0.75810910  0.02904463  0.82919003    -0.12640
C1698       C  0.77977791  0.04171032  0.80743130     0.01010
C1699       C  0.76704829  0.05525720  0.78007287    -0.11170
C1700       C  0.73942616  0.04314287  0.76686542     0.03500
C1701       C  0.71702688  0.03170638  0.78841860    -0.10590
H1702       H  0.76685573  0.01898054  0.85114908     0.09090
H1703       H  0.78156863  0.06977557  0.76581916     0.06620
H1704       H  0.69438995  0.02439894  0.77904605     0.06470
C1705       C  0.72547800  0.05998808  0.67851802     0.03510
C1706       C  0.71664114  0.05286361  0.71059345    -0.12640
C1707       C  0.73915179  0.03957639  0.73121508     0.01010
C1708       C  0.76758101  0.02986853  0.71744698    -0.11170
C1709       C  0.78006817  0.04716846  0.69222587     0.03500
C1710       C  0.75843132  0.06256782  0.67207163    -0.10590
H1711       H  0.69298101  0.05641199  0.71941223     0.09090
H1712       H  0.78227886  0.01360339  0.73003253     0.06620
H1713       H  0.76695104  0.07500418  0.65130084     0.06470
C1714       C  0.86894697  0.03875381  0.67909670     0.03510
C1715       C  0.87806484  0.04289875  0.71165070    -0.12640
C1716       C  0.85607712  0.05521108  0.73332210     0.01010
C1717       C  0.82775492  0.06688224  0.72035593    -0.11170
C1718       C  0.81494529  0.05291252  0.69285226     0.03500
C1719       C  0.83610801  0.03843903  0.67181683    -0.10590
H1720       H  0.90166087  0.03755844  0.72004387     0.09090
H1721       H  0.81368528  0.08283900  0.73412017     0.06620
H1722       H  0.82738917  0.02846950  0.64964194     0.06470
C1723       C  0.53505979  0.22045591  0.81951738     0.03510
C1724       C  0.53694993  0.25286529  0.82895175    -0.12640
C1725       C  0.54964208  0.27492998  0.80769433     0.01010
C1726       C  0.56279462  0.26274889  0.77967957    -0.11170
C1727       C  0.55055000  0.23504096  0.76578922     0.03500
C1728       C  0.53737006  0.21268200  0.78656400    -0.10590
H1729       H  0.53006759  0.26048092  0.85258143     0.09090
H1730       H  0.57897657  0.27689704  0.76654484     0.06620
H1731       H  0.53065885  0.18937044  0.77782683     0.06470
C1732       C  0.55206811  0.36489747  0.82281685     0.03510
C1733       C  0.55466259  0.33193777  0.82996531    -0.12640
C1734       C  0.54245894  0.30980729  0.80817560     0.01010
C1735       C  0.52664290  0.32198824  0.78161442    -0.11170
C1736       C  0.53550823  0.35135458  0.76885855     0.03500
C1737       C  0.54668709  0.37409610  0.79055121    -0.10590
H1738       H  0.56443668  0.32396680  0.85245904     0.09090
H1739       H  0.51208906  0.30655370  0.76788057     0.06620
H1740       H  0.55002807  0.39833046  0.78267747     0.06470
C1741       C  0.56174967  0.22427394  0.67591564     0.03510
C1742       C  0.56004371  0.21490068  0.70836935    -0.12640
C1743       C  0.54594800  0.23559077  0.73030121     0.01010
C1744       C  0.53154132  0.26271411  0.71781943    -0.11170
C1745       C  0.54318559  0.27707319  0.69022335     0.03500
C1746       C  0.55690241  0.25672446  0.66764420    -0.10590
H1747       H  0.56786877  0.19153961  0.71582055     0.09090
H1748       H  0.51560118  0.27567592  0.73230531     0.06620
H1749       H  0.56238707  0.26532709  0.64402991     0.06470
C1750       C  0.53146334  0.36723817  0.67832034     0.03510
C1751       C  0.52957629  0.37450773  0.71152636    -0.12640
C1752       C  0.54078041  0.35202746  0.73346469     0.01010
C1753       C  0.55547381  0.32530322  0.72072558    -0.11170
C1754       C  0.54598090  0.31277734  0.69147077     0.03500
C1755       C  0.53537901  0.33480242  0.66877260    -0.10590
H1756       H  0.52144595  0.39753458  0.71970959     0.09090
H1757       H  0.56957571  0.31117100  0.73589192     0.06620
H1758       H  0.53188272  0.32732274  0.64431613     0.06470
O1759       O  0.95574275  0.49409416  0.50084798    -0.86110
O1760       O  0.63561181  0.49350217  0.49670109    -0.86280
O1761       O  0.54585037  0.45508229  0.94810801    -0.87950
O1762       O  0.54356892  0.45452826  0.55143252    -0.86700
O1763       O  0.54539606  0.49320156  0.59012158    -0.86290
O1764       O  0.54595577  0.49342133  0.90936711    -0.87660
O1765       O  0.59740473  0.45477637  0.49744190    -0.86140
O1766       O  0.99395829  0.45546487  0.49980494    -0.85730
Zr1767     Zr  0.54591985  0.48110248  0.49987424     2.84310
O1768       O  0.57873834  0.01279606  0.53231820    -1.07700
O1769       O  0.51327265  0.01274349  0.96762534    -1.08430
C1770       C  0.96482189  0.46484326  0.50101466     1.07000
C1771       C  0.62646809  0.46408816  0.49549400     1.06940
C1772       C  0.54677639  0.46418144  0.91878021     1.09920
C1773       C  0.54303404  0.46395179  0.58076846     1.07700
H1774       H  0.59042360  0.00036930  0.95437618     0.33260
O1775       O  0.57738579  0.01345526  0.96792709    -1.28660
H1776       H  0.50126350  0.99990671  0.54513754     0.32930
O1777       O  0.51434781  0.01323067  0.53197964    -1.30340
O1778       O  0.63505394  0.09823431  0.50250963    -0.86110
O1779       O  0.95523843  0.09649656  0.50042535    -0.87600
O1780       O  0.59647697  0.04445694  0.90952522    -0.86180
O1781       O  0.59781389  0.04756802  0.59015636    -0.86230
O1782       O  0.99553216  0.04329857  0.59115730    -0.85940
O1783       O  0.99368896  0.04693711  0.90972385    -0.85750
O1784       O  0.54200080  0.13582503  0.94835091    -0.86120
O1785       O  0.54710565  0.13562495  0.55199973    -0.85580
O1786       O  0.54323924  0.09681265  0.90990393    -0.86650
O1787       O  0.54792128  0.09683937  0.59053972    -0.85810
O1788       O  0.63516801  0.04719882  0.94764499    -0.86200
O1789       O  0.95559508  0.04621063  0.94862507    -0.85930
O1790       O  0.95704242  0.04269049  0.55251881    -0.85580
O1791       O  0.63601272  0.04746804  0.55180218    -0.85980
O1792       O  0.59633622  0.13626545  0.50248357    -0.86280
O1793       O  0.99348678  0.13506405  0.49979967    -0.87620
Zr1794     Zr  0.60977581  0.04573003  0.49975962     2.83100
Zr1795     Zr  0.98206052  0.04525035  0.50036924     2.83500
Zr1796     Zr  0.54522618  0.04517243  0.93586012     2.84090
Zr1797     Zr  0.54637332  0.04511332  0.56416369     2.83360
Zr1798     Zr  0.54526539  0.10955479  0.50010247     2.84220
O1799       O  0.51359018  0.07783873  0.53297875    -1.08190
O1800       O  0.57763498  0.07799395  0.96742921    -1.07690
C1801       C  0.62555148  0.12752839  0.50395253     1.06970
C1802       C  0.96435956  0.12580014  0.49980558     1.09590
C1803       C  0.62574908  0.04579627  0.91828821     1.07140
C1804       C  0.62688036  0.04887085  0.58116757     1.07500
C1805       C  0.96641462  0.04168830  0.58187680     1.07080
C1806       C  0.96475987  0.04736131  0.91935361     1.06640
C1807       C  0.54123455  0.12609111  0.91910328     1.07060
C1808       C  0.54838567  0.12606897  0.58117543     1.06580
H1809       H  0.50000887  0.09023041  0.95513147     0.33250
O1810       O  0.51348814  0.07707018  0.96820666    -1.29290
H1811       H  0.59048311  0.09053611  0.54505432     0.33280
O1812       O  0.57737478  0.07721251  0.53169781    -1.30670
C1813       C  0.51617163  0.39000609  0.62551050    -0.11890
C1814       C  0.53295486  0.39311180  0.65426569     0.05110
C1815       C  0.55275709  0.42004095  0.65878203    -0.07180
C1816       C  0.55490289  0.44302822  0.63478432    -0.07920
C1817       C  0.53874322  0.43949721  0.60577925    -0.02480
C1818       C  0.51857972  0.41293952  0.60141265     0.04340
N1819       N  0.49889819  0.40991618  0.57365039     0.66850
H1820       H  0.50047037  0.36993206  0.62202742     0.15750
H1821       H  0.57051315  0.46319009  0.63829143     0.15460
N1822       N  0.57246739  0.42354581  0.68653862     0.74550
O1823       O  0.49483444  0.38303056  0.56078910    -0.38900
O1824       O  0.48138647  0.43279788  0.56545735    -0.38840
O1825       O  0.59091204  0.40135752  0.69466053    -0.39540
O1826       O  0.57531541  0.45044500  0.69969937    -0.39610
C1827       C  0.58154767  0.16409503  0.61095715    -0.11890
C1828       C  0.55154131  0.15064373  0.60585562     0.05110
C1829       C  0.52537169  0.16162279  0.62348323    -0.07180
C1830       C  0.53018217  0.18605593  0.64574353    -0.07920
C1831       C  0.56012407  0.19955959  0.65101176    -0.02480
C1832       C  0.58640814  0.18866040  0.63336908     0.04340
N1833       N  0.61776146  0.20165881  0.63777199     0.66850
H1834       H  0.60127085  0.15538488  0.59704517     0.15750
H1835       H  0.01031405  0.19457961  0.65951078     0.15460
N1836       N  0.99391865  0.14894128  0.61892239     0.74550
O1837       O  0.64140712  0.18774587  0.62587664    -0.38900
O1838       O  0.62211502  0.22759295  0.65236250    -0.38840
O1839       O  0.98960688  0.12075031  0.60944585    -0.39540
O1840       O  0.97009767  0.16540552  0.62641594    -0.39610
C1841       C  0.53543908  0.40918640  0.90030447    -0.11890
C1842       C  0.54943832  0.43878877  0.89434627     0.05110
C1843       C  0.56593064  0.44318021  0.86549421    -0.07180
C1844       C  0.56746545  0.41839971  0.84321685    -0.07920
C1845       C  0.55257812  0.38917777  0.84861843    -0.02480
C1846       C  0.53616824  0.38465061  0.87767119     0.04340
N1847       N  0.51831651  0.35632540  0.88387264     0.66850
H1848       H  0.52242563  0.40555362  0.92216674     0.15750
H1849       H  0.58074943  0.42202517  0.82154788     0.15460
N1850       N  0.58204456  0.47221394  0.85858858     0.74550
O1851       O  0.51973787  0.34351219  0.91100231    -0.38900
O1852       O  0.49728599  0.34732921  0.86439405    -0.38840
O1853       O  0.60269442  0.48265679  0.87771746    -0.39540
O1854       O  0.58183399  0.98319888  0.83122701    -0.39610
C1855       C  0.51415644  0.19721631  0.86998221    -0.11890
C1856       C  0.53493458  0.19519322  0.84404412     0.05110
C1857       C  0.55758445  0.17039408  0.84325255    -0.07180
C1858       C  0.55838418  0.14810100  0.86780666    -0.07920
C1859       C  0.53791441  0.15011650  0.89374681    -0.02480
C1860       C  0.51520862  0.17482877  0.89480336     0.04340
N1861       N  0.49247411  0.17689859  0.92004987     0.66850
H1862       H  0.49670694  0.21607071  0.87066539     0.15750
H1863       H  0.57642889  0.12997326  0.86752529     0.15460
N1864       N  0.58142525  0.16865066  0.81904863     0.74550
O1865       O  0.98301764  0.20373115  0.92964451    -0.38900
O1866       O  0.97870263  0.15217180  0.92973344    -0.38840
O1867       O  0.59854178  0.19253813  0.81337382    -0.39540
O1868       O  0.58895484  0.14203080  0.80732024    -0.39610
C1869       C  0.92296797  0.02377381  0.65934952    -0.11890
C1870       C  0.89300466  0.03694081  0.65310881     0.05110
C1871       C  0.88743877  0.05058869  0.62260893    -0.07180
C1872       C  0.91134802  0.05046098  0.59975409    -0.07920
C1873       C  0.94156318  0.03858027  0.60654641    -0.02480
C1874       C  0.94726040  0.02477203  0.63675214     0.04340
N1875       N  0.97713893  0.01074762  0.64467828     0.66850
H1876       H  0.92773054  0.01223915  0.68186239     0.15750
H1877       H  0.90663918  0.06153718  0.57693399     0.15460
N1878       N  0.85863082  0.06687185  0.61486668     0.74550
O1879       O  0.99006223  0.01682282  0.67118500    -0.38900
O1880       O  0.48786473  0.98844535  0.62775725    -0.38840
O1881       O  0.85075575  0.09133850  0.63042725    -0.39540
O1882       O  0.84416046  0.06026927  0.58930764    -0.39610
C1883       C  0.68347847  0.04827818  0.59804390    -0.11890
C1884       C  0.65172996  0.05308403  0.60623279     0.05110
C1885       C  0.64483387  0.06313771  0.63771132    -0.07210
C1886       C  0.66947124  0.06837684  0.65958567    -0.07920
C1887       C  0.70114760  0.06125408  0.65221330    -0.02480
C1888       C  0.70789949  0.05121931  0.62051051     0.04340
N1889       N  0.73888934  0.04169070  0.61079036     0.66850
H1890       H  0.68949437  0.04047782  0.57420325     0.15750
H1891       H  0.66317527  0.07692788  0.68300184     0.15460
N1892       N  0.61301433  0.06706866  0.64854927     0.74550
O1893       O  0.75037133  0.01590184  0.62093487    -0.38900
O1894       O  0.75182221  0.05541695  0.58755073    -0.38840
O1895       O  0.59644506  0.04271918  0.65393791    -0.39540
O1896       O  0.60435702  0.09355074  0.65974349    -0.39610
C1897       C  0.66775891  0.03613593  0.83825898    -0.11890
C1898       C  0.69991492  0.03397896  0.84735043     0.05110
C1899       C  0.70699282  0.03994541  0.88013753    -0.07180
C1900       C  0.68250134  0.04262570  0.90237686    -0.07920
C1901       C  0.65063464  0.04426631  0.89303889    -0.02480
C1902       C  0.64365427  0.04349208  0.85996292     0.04340
N1903       N  0.61334119  0.05307218  0.84748301     0.66850
H1904       H  0.66086563  0.03476640  0.81362752     0.15750
H1905       H  0.68884689  0.04548589  0.92725755     0.15460
N1906       N  0.73820619  0.04737668  0.89122476     0.74550
O1907       O  0.60388680  0.04246612  0.82092948    -0.38900
O1908       O  0.60041855  0.07785952  0.85825995    -0.38840
O1909       O  0.75126292  0.07269344  0.88196493    -0.39540
O1910       O  0.74931693  0.03321071  0.91527654    -0.39610
C1911       C  0.89831297  0.02684765  0.86249929    -0.11890
C1912       C  0.89111316  0.05686167  0.84975767     0.05110
C1913       C  0.90832917  0.08388832  0.85990674    -0.07180
C1914       C  0.93281237  0.07974748  0.88237843    -0.07920
C1915       C  0.94005595  0.04962839  0.89483372    -0.02480
C1916       C  0.92275740  0.02269083  0.88477561     0.04340
N1917       N  0.92986674  0.49123632  0.89610402     0.66850
H1918       H  0.88530090  0.50650676  0.85394568     0.15750
H1919       H  0.94602579  0.10022256  0.89079780     0.15460
N1920       N  0.90101728  0.11537890  0.84843638     0.74550
O1921       O  0.90906738  0.46973115  0.89483406    -0.38900
O1922       O  0.95750124  0.48379796  0.90482727    -0.38840
O1923       O  0.87386867  0.12192470  0.83767467    -0.39540
O1924       O  0.92087908  0.13759697  0.85156587    -0.39610
C1925       C  0.68200899  0.44542262  0.50274426    -0.11890
C1926       C  0.65138362  0.43924299  0.49136477     0.05110
C1927       C  0.64518599  0.40928436  0.97686790    -0.07180
C1928       C  0.66940064  0.38651722  0.97452931    -0.07920
C1929       C  0.69997627  0.39246641  0.48656745    -0.02480
C1930       C  0.70599192  0.42238942  0.50130196     0.04340
N1931       N  0.73543652  0.42918918  0.51705096     0.66850
H1932       H  0.68701532  0.46786582  0.51449482     0.15750
H1933       H  0.66431636  0.36418250  0.96266235     0.15460
N1934       N  0.61498189  0.40199192  0.96311992     0.74550
O1935       O  0.74849774  0.45589808  0.51328476    -0.38900
O1936       O  0.74544566  0.41098884  0.53873941    -0.38840
O1937       O  0.60404345  0.41933935  0.94122916    -0.39540
O1938       O  0.60219811  0.37554296  0.46861341    -0.39610
C1939       C  0.68184112  0.14521038  0.50210619    -0.11890
C1940       C  0.65017143  0.15276527  0.50844727     0.05110
C1941       C  0.64320326  0.18360064  0.02022187    -0.07180
C1942       C  0.66785493  0.20520943  0.02635799    -0.07920
C1943       C  0.69949595  0.19831249  0.51856880    -0.02480
C1944       C  0.70614634  0.16762655  0.50577034     0.04340
N1945       N  0.73679076  0.15924928  0.49396668     0.66850
H1946       H  0.68775456  0.12202502  0.49248071     0.15750
H1947       H  0.66176615  0.22816046  0.03627822     0.15460
N1948       N  0.61137681  0.19415682  0.02515619     0.74550
O1949       O  0.74956610  0.13353151  0.50264782    -0.38900
O1950       O  0.74808983  0.17407078  0.97059163    -0.38840
O1951       O  0.60386911  0.20613448  0.55169253    -0.39540
O1952       O  0.59385759  0.19928624  0.00127345    -0.39610
C1953       C  0.92046420  0.20455208  0.50586993    -0.11890
C1954       C  0.89143597  0.19732220  0.99087300     0.05110
C1955       C  0.88694922  0.16648299  0.97798886    -0.07180
C1956       C  0.91077671  0.14345523  0.98212559    -0.07920
C1957       C  0.93942657  0.15061706  0.49789399    -0.02480
C1958       C  0.94429140  0.18179671  0.50959751     0.04340
N1959       N  0.97245008  0.19052274  0.52677944     0.66850
H1960       H  0.92406589  0.22775251  0.51660026     0.15750
H1961       H  0.90737874  0.11999960  0.97190368     0.15460
N1962       N  0.85922367  0.15847310  0.95966546     0.74550
O1963       O  0.98524369  0.21717672  0.52189300    -0.38900
O1964       O  0.48169601  0.17399244  0.55005556    -0.38840
O1965       O  0.84687418  0.17865604  0.94118668    -0.39540
O1966       O  0.84896716  0.13034917  0.45935567    -0.39610
C1967       C  0.94558585  0.41016221  0.98913241    -0.11890
C1968       C  0.93997822  0.44003360  0.50303463     0.05110
C1969       C  0.91103264  0.44514663  0.51906948    -0.07180
C1970       C  0.88858366  0.42069542  0.52056677    -0.07920
C1971       C  0.89373808  0.39128340  0.50553562    -0.02480
C1972       C  0.92268353  0.38613373  0.98942128     0.04340
N1973       N  0.92865551  0.35768584  0.97140686     0.66850
H1974       H  0.96746987  0.40600211  0.97646430     0.15750
H1975       H  0.86676526  0.42498424  0.53326644     0.15460
N1976       N  0.90415097  0.47474900  0.53447378     0.74550
O1977       O  0.90945503  0.34902399  0.94995290    -0.38900
O1978       O  0.95535946  0.34436190  0.97314448    -0.38840
O1979       O  0.89331954  0.99756413  0.51823081    -0.39540
O1980       O  0.90218640  0.47578141  0.56444328    -0.39610
C1981       C  0.86801694  0.86702249  0.00464805     0.03510
C1982       C  0.87518236  0.83421926  0.50800642    -0.12640
C1983       C  0.85412563  0.81163244  0.49558668     0.01010
C1984       C  0.82791094  0.82322246  0.47877616    -0.11170
C1985       C  0.81490957  0.85281790  0.98694517     0.03500
C1986       C  0.83609972  0.87593467  0.99829069    -0.10590
H1987       H  0.89728044  0.82657558  0.51864953     0.09090
H1988       H  0.81456867  0.80750978  0.46386527     0.06620
H1989       H  0.82807410  0.90018676  0.00135119     0.06470
C1990       C  0.86582497  0.72156314  0.49339424     0.03510
C1991       C  0.87346136  0.75432336  0.49036789    -0.12640
C1992       C  0.85411579  0.77719557  0.50464227     0.01010
C1993       C  0.82896957  0.76606838  0.52307976    -0.11170
C1994       C  0.81491239  0.73655111  0.01592365     0.03500
C1995       C  0.83470884  0.71308652  0.00301063    -0.10590
H1996       H  0.89477355  0.76169255  0.47825651     0.09090
H1997       H  0.81692945  0.78214108  0.53863502     0.06620
H1998       H  0.82616477  0.68891167  0.00123809     0.06470
C1999       C  0.72413845  0.72406261  0.02015630     0.03510
C2000       C  0.75694860  0.71658665  0.02430121    -0.12640
C2001       C  0.77960567  0.73709322  0.01123663     0.01010
C2002       C  0.76797969  0.76278267  0.99411629    -0.11170
C2003       C  0.73953671  0.77719694  0.00253768     0.03500
C2004       C  0.71596260  0.75660576  0.01367352    -0.10590
H2005       H  0.76443373  0.69458951  0.03533179     0.09090
H2006       H  0.78375176  0.77520533  0.97919687     0.06620
H2007       H  0.69204654  0.76540366  0.01547980     0.06470
C2008       C  0.72437356  0.86657442  0.98576827     0.03510
C2009       C  0.75706075  0.87405819  0.98142829    -0.12640
C2010       C  0.77994637  0.85301033  0.99338514     0.01010
C2011       C  0.76872145  0.82715926  0.01043032    -0.11170
C2012       C  0.73976320  0.81320510  0.00270374     0.03500
C2013       C  0.71603150  0.83415855  0.99221181    -0.10590
H2014       H  0.76427205  0.89636460  0.97091182     0.09090
H2015       H  0.78500169  0.81424751  0.02459192     0.06620
H2016       H  0.69188048  0.82586853  0.99062555     0.06470
C2017       C  0.86697285  0.55755111  0.32432651     0.03510
C2018       C  0.83506502  0.55054572  0.33194999    -0.12640
C2019       C  0.81517198  0.53856863  0.30803889     0.01010
C2020       C  0.82939494  0.53073584  0.27902169    -0.11170
C2021       C  0.85573911  0.54747417  0.26831498     0.03500
C2022       C  0.87618330  0.55965033  0.29182841    -0.10590
H2023       H  0.82636883  0.55367175  0.35597584     0.09090
H2024       H  0.81666958  0.51657162  0.26241701     0.06620
H2025       H  0.89900222  0.56921937  0.28532629     0.06470
C2026       C  0.72503408  0.53053980  0.32173949     0.03510
C2027       C  0.75810850  0.52903236  0.32918318    -0.12640
C2028       C  0.77979341  0.54168435  0.30743172     0.01010
C2029       C  0.76707937  0.55525419  0.28007778    -0.11170
C2030       C  0.73944346  0.54317827  0.26686352     0.03500
C2031       C  0.71703034  0.53175974  0.28840857    -0.10590
H2032       H  0.76683783  0.51896451  0.35114832     0.09090
H2033       H  0.78161614  0.56976262  0.26583222     0.06620
H2034       H  0.69438467  0.52449324  0.27902755     0.06470
C2035       C  0.72548362  0.56002421  0.17851129     0.03510
C2036       C  0.71665106  0.55291043  0.21059144    -0.12640
C2037       C  0.73916453  0.53962594  0.23121245     0.01010
C2038       C  0.76758736  0.52990953  0.21744165    -0.11170
C2039       C  0.78007541  0.54720816  0.19222323     0.03500
C2040       C  0.75843838  0.56260317  0.17206373    -0.10590
H2041       H  0.69299321  0.55646260  0.21941424     0.09090
H2042       H  0.78228610  0.51364746  0.23002904     0.06620
H2043       H  0.76695881  0.57503534  0.15129094     0.06470
C2044       C  0.86894364  0.53873016  0.17909990     0.03510
C2045       C  0.87806475  0.54286264  0.21165409    -0.12640
C2046       C  0.85608731  0.55518722  0.23332840     0.01010
C2047       C  0.82777350  0.56688420  0.22036461    -0.11170
C2048       C  0.81495481  0.55293676  0.19285189     0.03500
C2049       C  0.83610576  0.53844494  0.17181879    -0.10590
H2050       H  0.90165628  0.53750185  0.22004670     0.09090
H2051       H  0.81371738  0.58285277  0.23413005     0.06620
H2052       H  0.82737890  0.52848131  0.14964441     0.06470
C2053       C  0.53507955  0.72047346  0.31951012     0.03510
C2054       C  0.53698383  0.75287976  0.32894597    -0.12640
C2055       C  0.54968430  0.77493950  0.30769120     0.01010
C2056       C  0.56282922  0.76275600  0.27967167    -0.11170
C2057       C  0.55058012  0.73504632  0.26578471     0.03500
C2058       C  0.53738948  0.71269594  0.28655936    -0.10590
H2059       H  0.53010358  0.76049723  0.35257578     0.09090
H2060       H  0.57900911  0.77690314  0.26653210     0.06620
H2061       H  0.53066992  0.68938613  0.27782380     0.06470
C2062       C  0.55207991  0.86490983  0.32281426     0.03510
C2063       C  0.55469168  0.83195086  0.32996246    -0.12640
C2064       C  0.54249389  0.80981423  0.30817447     0.01010
C2065       C  0.52665991  0.82198623  0.28162204    -0.11170
C2066       C  0.53550906  0.85135375  0.26886163     0.03500
C2067       C  0.54668504  0.87410325  0.29054891    -0.10590
H2068       H  0.56447511  0.82398460  0.35245376     0.09090
H2069       H  0.51211006  0.80654326  0.26789304     0.06620
H2070       H  0.55001376  0.89833836  0.28267213     0.06470
C2071       C  0.56174595  0.72427048  0.17590670     0.03510
C2072       C  0.56005768  0.71490042  0.20836267    -0.12640
C2073       C  0.54596714  0.73559044  0.23029918     0.01010
C2074       C  0.53154463  0.76270568  0.21782219    -0.11170
C2075       C  0.54317462  0.77706589  0.19022218     0.03500
C2076       C  0.55688658  0.75671985  0.16763648    -0.10590
H2077       H  0.56789264  0.69154244  0.21581303     0.09090
H2078       H  0.51560708  0.77566421  0.23231478     0.06620
H2079       H  0.56235937  0.76532346  0.14401971     0.06470
C2080       C  0.53140216  0.86721869  0.17832851     0.03510
C2081       C  0.52953162  0.87449153  0.21153345    -0.12640
C2082       C  0.54076458  0.85202225  0.23346608     0.01010
C2083       C  0.55546130  0.82530099  0.22072098    -0.11170
C2084       C  0.54595939  0.81276972  0.19146998     0.03500
C2085       C  0.53532982  0.83478657  0.16877904    -0.10590
H2086       H  0.52139616  0.89751585  0.21971879     0.09090
H2087       H  0.56957437  0.81117378  0.23588203     0.06620
H2088       H  0.53182379  0.82730477  0.14432449     0.06470
O2089       O  0.95567639  0.99407782  0.00084777    -0.86110
O2090       O  0.63555827  0.99340868  0.99671122    -0.86280
O2091       O  0.54587896  0.95510127  0.44811141    -0.87950
O2092       O  0.54350229  0.95447606  0.05143413    -0.86700
O2093       O  0.54534058  0.99315362  0.09011915    -0.86290
O2094       O  0.54596971  0.99343902  0.40936928    -0.87660
O2095       O  0.59734140  0.95469306  0.99744836    -0.86140
O2096       O  0.99388410  0.95544218  0.99980424    -0.85730
Zr2097     Zr  0.54586514  0.98104339  0.99987551     2.84310
O2098       O  0.57871950  0.51276255  0.03231676    -1.07700
O2099       O  0.51331187  0.51279181  0.46762918    -1.08430
C2100       C  0.96474961  0.96482510  0.00101322     1.07000
C2101       C  0.62640830  0.96399586  0.99550400     1.06940
C2102       C  0.54679800  0.96419894  0.41878256     1.09920
C2103       C  0.54297020  0.96390456  0.08076809     1.07700
H2104       H  0.59046978  0.50043833  0.45437208     0.33260
O2105       O  0.57742957  0.51352091  0.46792391    -1.28660
H2106       H  0.50124506  0.49989019  0.04513802     0.32930
O2107       O  0.51433082  0.51321229  0.03197968    -1.30340
O2108       O  0.63505167  0.59818077  0.00250950    -0.86110
O2109       O  0.95518991  0.59640837  0.00043773    -0.87600
O2110       O  0.59650298  0.54451973  0.40952297    -0.86180
O2111       O  0.59780835  0.54755014  0.09015324    -0.86230
O2112       O  0.99551869  0.54321301  0.09115797    -0.85940
O2113       O  0.99372959  0.54695962  0.40972419    -0.85750
O2114       O  0.54201814  0.63587607  0.44834941    -0.86120
O2115       O  0.54710414  0.63560545  0.05199753    -0.85580
O2116       O  0.54325820  0.59685890  0.40990655    -0.86650
O2117       O  0.54791959  0.59682002  0.09053755    -0.85810
O2118       O  0.63519822  0.54728706  0.44763653    -0.86200
O2119       O  0.95563782  0.54622396  0.44862711    -0.85930
O2120       O  0.95702584  0.54259850  0.05252136    -0.85580
O2121       O  0.63600699  0.54742956  0.05179947    -0.85980
O2122       O  0.59634164  0.63622091  0.00248283    -0.86280
O2123       O  0.99343062  0.63497897  0.99980028    -0.87620
Zr2124     Zr  0.60976434  0.54568685  0.99975759     2.83100
Zr2125     Zr  0.98202777  0.54516564  0.00036632     2.83500
Zr2126     Zr  0.54525540  0.54522168  0.43585869     2.84090
Zr2127     Zr  0.54636522  0.54509270  0.06416040     2.83360
Zr2128     Zr  0.54525816  0.60953374  0.00009950     2.84220
O2129       O  0.51358175  0.57781908  0.03297576    -1.08190
O2130       O  0.57765743  0.57805888  0.46742206    -1.07690
C2131       C  0.62555461  0.62747562  0.00395423     1.06970
C2132       C  0.96430881  0.62571338  0.99981776     1.09590
C2133       C  0.62577515  0.54587372  0.41828182     1.07140
C2134       C  0.62687578  0.54884499  0.08116499     1.07500
C2135       C  0.96640132  0.54160056  0.08187839     1.07080
C2136       C  0.96480012  0.54737462  0.41935455     1.06640
C2137       C  0.54125127  0.62613713  0.41910402     1.07060
C2138       C  0.54838531  0.62605006  0.08117372     1.06580
H2139       H  0.50003326  0.59027712  0.45513227     0.33250
O2140       O  0.51351671  0.57712021  0.46820659    -1.29290
H2141       H  0.59047731  0.59050398  0.04504686     0.33280
O2142       O  0.57736713  0.57718267  0.03168999    -1.30670
C2143       C  0.51608806  0.88998328  0.12552817    -0.11890
C2144       C  0.53288475  0.89308876  0.15427492     0.05110
C2145       C  0.55269889  0.92000976  0.15878074    -0.07180
C2146       C  0.55484589  0.94298984  0.13477905    -0.07920
C2147       C  0.53867491  0.93945815  0.10578119    -0.02480
C2148       C  0.51849695  0.91291030  0.10142560     0.04340
N2149       N  0.49880473  0.90989072  0.07367031     0.66850
H2150       H  0.50037891  0.86991372  0.12205526     0.15750
H2151       H  0.57046633  0.96314540  0.13827666     0.15460
N2152       N  0.57242083  0.92351144  0.18652924     0.74550
O2153       O  0.49471703  0.88300303  0.06082101    -0.38900
O2154       O  0.48130765  0.93278225  0.06547307    -0.38840
O2155       O  0.59086957  0.90132249  0.19463984    -0.39540
O2156       O  0.57527510  0.95040950  0.19969094    -0.39610
C2157       C  0.58154785  0.66407550  0.11096041    -0.11890
C2158       C  0.55154102  0.65062640  0.10585480     0.05110
C2159       C  0.52536990  0.66161192  0.12347679    -0.07180
C2160       C  0.53017898  0.68604958  0.14573351    -0.07920
C2161       C  0.56012078  0.69955288  0.15100376    -0.02480
C2162       C  0.58640647  0.68864673  0.13336726     0.04340
N2163       N  0.61775935  0.70164614  0.13776953     0.66850
H2164       H  0.60127275  0.65536038  0.09705405     0.15750
H2165       H  0.01022631  0.69452317  0.15947745     0.15460
N2166       N  0.99387176  0.64884286  0.11891282     0.74550
O2167       O  0.64140634  0.68772906  0.12588162    -0.38900
O2168       O  0.62211052  0.72758769  0.15234750    -0.38840
O2169       O  0.98957544  0.62064413  0.10945197    -0.39540
O2170       O  0.97004079  0.66530176  0.12638519    -0.39610
C2171       C  0.53546741  0.90919886  0.40030938    -0.11890
C2172       C  0.54945887  0.93880459  0.39434735     0.05110
C2173       C  0.56594010  0.94319855  0.36548876    -0.07180
C2174       C  0.56746953  0.91841860  0.34320900    -0.07920
C2175       C  0.55259072  0.88919297  0.34861540    -0.02480
C2176       C  0.53619303  0.88466274  0.37767495     0.04340
N2177       N  0.51835002  0.85633331  0.38388312     0.66850
H2178       H  0.52246246  0.90556334  0.42217631     0.15750
H2179       H  0.58074435  0.92204665  0.32153474     0.15460
N2180       N  0.58205027  0.97223364  0.35857948     0.74550
O2181       O  0.51977751  0.84352514  0.41101490    -0.38900
O2182       O  0.49732085  0.84732691  0.36440778    -0.38840
O2183       O  0.60269837  0.98268186  0.37770738    -0.39540
O2184       O  0.58217098  0.48311591  0.33124420    -0.39610
C2185       C  0.51416890  0.69724524  0.36997153    -0.11890
C2186       C  0.53494815  0.69521483  0.34403550     0.05110
C2187       C  0.55759824  0.67041675  0.34324798    -0.07180
C2188       C  0.55839976  0.64813235  0.36780737    -0.07920
C2189       C  0.53792977  0.65015542  0.39374604    -0.02480
C2190       C  0.51522221  0.67486544  0.39479781     0.04340
N2191       N  0.49248918  0.67694159  0.42004523     0.66850
H2192       H  0.49671976  0.71610023  0.37064989     0.15750
H2193       H  0.57644583  0.63000596  0.36753123     0.15460
N2194       N  0.58143734  0.66866638  0.31904290     0.74550
O2195       O  0.98302133  0.70375334  0.42965803    -0.38900
O2196       O  0.97872111  0.65219281  0.42973962    -0.38840
O2197       O  0.59856133  0.69254844  0.31336821    -0.39540
O2198       O  0.58895782  0.64204431  0.30731356    -0.39610
C2199       C  0.92295388  0.52371369  0.15935305    -0.11890
C2200       C  0.89299808  0.53689808  0.15311190     0.05110
C2201       C  0.88743780  0.55054470  0.12261042    -0.07180
C2202       C  0.91134394  0.55039789  0.09975462    -0.07920
C2203       C  0.94155206  0.53850199  0.10654780    -0.02480
C2204       C  0.94724544  0.52469638  0.13675487     0.04340
N2205       N  0.97711873  0.51066134  0.14468196     0.66850
H2206       H  0.92771178  0.51217897  0.18186674     0.15750
H2207       H  0.90663997  0.56147427  0.07693354     0.15460
N2208       N  0.85864135  0.56684760  0.11486717     0.74550
O2209       O  0.99004591  0.51673573  0.17118697    -0.38900
O2210       O  0.48785355  0.48842718  0.12774968    -0.38840
O2211       O  0.85079016  0.59132812  0.13041819    -0.39540
O2212       O  0.84416306  0.56024812  0.08931184    -0.39610
C2213       C  0.68347879  0.54828509  0.09803823    -0.11890
C2214       C  0.65172721  0.55306830  0.10623007     0.05110
C2215       C  0.64482957  0.56311558  0.13771059    -0.07210
C2216       C  0.66946704  0.56837361  0.15958149    -0.07920
C2217       C  0.70114856  0.56127431  0.15220646    -0.02480
C2218       C  0.70790166  0.55124388  0.12050214     0.04340
N2219       N  0.73889662  0.54173872  0.11077658     0.66850
H2220       H  0.68949748  0.54049097  0.07419634     0.15750
H2221       H  0.66316672  0.57692033  0.18299771     0.15460
N2222       N  0.61300890  0.56701931  0.14855522     0.74550
O2223       O  0.75039428  0.51595224  0.12090925    -0.38900
O2224       O  0.75181902  0.55548189  0.08754106    -0.38840
O2225       O  0.59645502  0.54265584  0.15392905    -0.39540
O2226       O  0.60433624  0.59348856  0.15976786    -0.39610
C2227       C  0.66776015  0.53614002  0.33825582    -0.11890
C2228       C  0.69992083  0.53401955  0.34733854     0.05110
C2229       C  0.70700926  0.54003773  0.38011366    -0.07180
C2230       C  0.68252510  0.54273067  0.40235918    -0.07920
C2231       C  0.65065486  0.54434244  0.39302903    -0.02480
C2232       C  0.64366298  0.54352775  0.35995658     0.04340
N2233       N  0.61334895  0.55310562  0.34747491     0.66850
H2234       H  0.66085514  0.53471277  0.31363147     0.15750
H2235       H  0.68887686  0.54562543  0.42723437     0.15460
N2236       N  0.73822380  0.54750503  0.39117525     0.74550
O2237       O  0.60389179  0.54249440  0.32092443    -0.38900
O2238       O  0.60042989  0.57789815  0.35824423    -0.38840
O2239       O  0.75127394  0.57279973  0.38184683    -0.39540
O2240       O  0.74934638  0.53339966  0.41525750    -0.39610
C2241       C  0.89834046  0.52682181  0.36252440    -0.11890
C2242       C  0.89113397  0.55682707  0.34976551     0.05110
C2243       C  0.90835101  0.58386091  0.35989465    -0.07180
C2244       C  0.93284147  0.57973620  0.38236235    -0.07920
C2245       C  0.94009186  0.54962569  0.39483473    -0.02480
C2246       C  0.92279216  0.52268102  0.38479698     0.04340
N2247       N  0.92988708  0.99131085  0.39614011     0.66850
H2248       H  0.88531056  0.00654427  0.35398094     0.15750
H2249       H  0.94605423  0.60021795  0.39076625     0.15460
N2250       N  0.90103135  0.61534399  0.34840927     0.74550
O2251       O  0.90909301  0.96979971  0.39488611    -0.38900
O2252       O  0.95752634  0.98388336  0.40485716    -0.38840
O2253       O  0.87387487  0.62188280  0.33766357    -0.39540
O2254       O  0.92089420  0.63756449  0.35151298    -0.39610
C2255       C  0.68195117  0.94532706  0.00274994    -0.11890
C2256       C  0.65132222  0.93914327  0.99138074     0.05110
C2257       C  0.64524002  0.90934634  0.47685975    -0.07180
C2258       C  0.66946055  0.88658613  0.47451998    -0.07920
C2259       C  0.69992336  0.89236866  0.98658137    -0.02480
C2260       C  0.70593692  0.92229589  0.00130753     0.04340
N2261       N  0.73538403  0.92910288  0.01704834     0.66850
H2262       H  0.68695973  0.96777416  0.01449189     0.15750
H2263       H  0.66438231  0.86425142  0.46265037     0.15460
N2264       N  0.61503898  0.90204821  0.46310784     0.74550
O2265       O  0.74844286  0.95581123  0.01327066    -0.38900
O2266       O  0.74540046  0.91090866  0.03873863    -0.38840
O2267       O  0.60409542  0.91939968  0.44122283    -0.39540
O2268       O  0.60214582  0.87541601  0.96866876    -0.39610
C2269       C  0.68184731  0.64514092  0.00211371    -0.11890
C2270       C  0.65017958  0.65270243  0.00845839     0.05110
C2271       C  0.64323310  0.68368597  0.52021619    -0.07180
C2272       C  0.66788897  0.70529252  0.52634992    -0.07920
C2273       C  0.69951238  0.69822921  0.01860188    -0.02480
C2274       C  0.70615784  0.66754853  0.00578943     0.04340
N2275       N  0.73680141  0.65916972  0.99398401     0.66850
H2276       H  0.68775466  0.62195884  0.99247633     0.15750
H2277       H  0.66180394  0.72824415  0.53627107     0.15460
N2278       N  0.61140848  0.69424395  0.52515781     0.74550
O2279       O  0.74956990  0.63344493  0.00265461    -0.38900
O2280       O  0.74812146  0.67414373  0.47058444    -0.38840
O2281       O  0.60389512  0.70607938  0.05172580    -0.39540
O2282       O  0.59388171  0.69936736  0.50127941    -0.39610
C2283       C  0.92046676  0.70448951  0.00587173    -0.11890
C2284       C  0.89147769  0.69736672  0.49088117     0.05110
C2285       C  0.88698319  0.66652640  0.47800144    -0.07180
C2286       C  0.91080431  0.64349150  0.48214156    -0.07920
C2287       C  0.93938819  0.65053720  0.99791745    -0.02480
C2288       C  0.94428008  0.68172122  0.00960214     0.04340
N2289       N  0.97245680  0.69044289  0.02675795     0.66850
H2290       H  0.92408536  0.72769271  0.01659026     0.15750
H2291       H  0.90740031  0.62003573  0.47192209     0.15460
N2292       N  0.85925667  0.65852287  0.45967703     0.74550
O2293       O  0.98527074  0.71707979  0.02183314    -0.38900
O2294       O  0.48167717  0.67398007  0.05004687    -0.38840
O2295       O  0.84691561  0.67870698  0.44119385    -0.39540
O2296       O  0.84893111  0.63031190  0.95937084    -0.39610
C2297       C  0.94563606  0.91024012  0.48912814    -0.11890
C2298       C  0.93990501  0.94001582  0.00302824     0.05110
C2299       C  0.91096114  0.94511886  0.01907047    -0.07180
C2300       C  0.88852262  0.92065761  0.02057419    -0.07920
C2301       C  0.89368428  0.89124838  0.00554028    -0.02480
C2302       C  0.92274188  0.88620489  0.48941612     0.04340
N2303       N  0.92872489  0.85775877  0.47140274     0.66850
H2304       H  0.96752188  0.90608613  0.47646112     0.15750
H2305       H  0.86670507  0.92493674  0.03327867     0.15460
N2306       N  0.90406919  0.97471987  0.03447394     0.74550
O2307       O  0.90953061  0.84909261  0.44994498    -0.38900
O2308       O  0.95543528  0.84444755  0.47313894    -0.38840
O2309       O  0.89330091  0.49750256  0.01823698    -0.39540
O2310       O  0.90202527  0.97573519  0.06443828    -0.39610
C2311       C  0.86802884  0.86706349  0.50462942     0.03510
C2312       C  0.87518508  0.83418098  0.00802479    -0.12640
C2313       C  0.85413733  0.81158448  0.99560619     0.01010
C2314       C  0.82791776  0.82316389  0.97879514    -0.11170
C2315       C  0.81491492  0.85288024  0.48692959     0.03500
C2316       C  0.83611474  0.87598889  0.49827379    -0.10590
H2317       H  0.89728716  0.82654736  0.01866674     0.09090
H2318       H  0.81458247  0.80744497  0.96388484     0.06620
H2319       H  0.82809837  0.90024392  0.50133524     0.06470
C2320       C  0.86585114  0.72151620  0.99340768     0.03510
C2321       C  0.87348825  0.75427765  0.99039000    -0.12640
C2322       C  0.85413848  0.77714727  0.00466492     0.01010
C2323       C  0.82899195  0.76601502  0.02309954    -0.11170
C2324       C  0.81488359  0.73660763  0.51590401     0.03500
C2325       C  0.83467902  0.71313727  0.50299382    -0.10590
H2326       H  0.89479918  0.76164979  0.97827827     0.09090
H2327       H  0.81694754  0.78208561  0.03865375     0.06620
H2328       H  0.82613370  0.68896271  0.50122245     0.06470
C2329       C  0.72410142  0.72414676  0.52013220     0.03510
C2330       C  0.75691012  0.71666331  0.52428264    -0.12640
C2331       C  0.77957504  0.73716201  0.51121895     0.01010
C2332       C  0.76795676  0.76285919  0.49410462    -0.11170
C2333       C  0.73951795  0.77728117  0.50252760     0.03500
C2334       C  0.71593486  0.75669370  0.51365496    -0.10590
H2335       H  0.76438830  0.69466395  0.53531337     0.09090
H2336       H  0.78373288  0.77527949  0.47918771     0.06620
H2337       H  0.69202040  0.76549657  0.51545986     0.06470
C2338       C  0.72438756  0.86666271  0.48575442     0.03510
C2339       C  0.75707575  0.87413724  0.48141572    -0.12640
C2340       C  0.77995352  0.85308356  0.49337451     0.01010
C2341       C  0.76872041  0.82723567  0.51042054    -0.11170
C2342       C  0.73975693  0.81329000  0.50269483     0.03500
C2343       C  0.71603351  0.83425072  0.49219972    -0.10590
H2344       H  0.76429369  0.89644182  0.47089979     0.09090
H2345       H  0.78499698  0.81431956  0.52458227     0.06620
H2346       H  0.69187926  0.82597000  0.49061254     0.06470
C2347       C  0.86704950  0.55797019  0.82428877     0.03510
C2348       C  0.83513999  0.55097298  0.83192218    -0.12640
C2349       C  0.81525335  0.53897416  0.80801823     0.01010
C2350       C  0.82947653  0.53111844  0.77902228    -0.11170
C2351       C  0.85580168  0.54785322  0.76829163     0.03500
C2352       C  0.87625523  0.56005182  0.79178536    -0.10590
H2353       H  0.82645334  0.55407647  0.85595434     0.09090
H2354       H  0.81675819  0.51694089  0.76243419     0.06620
H2355       H  0.89908067  0.56959585  0.78527033     0.06470
C2356       C  0.72522927  0.53034048  0.82188084     0.03510
C2357       C  0.75831984  0.52914899  0.82928149    -0.12640
C2358       C  0.77986230  0.54188596  0.80744861     0.01010
C2359       C  0.76700287  0.55521359  0.78003434    -0.11170
C2360       C  0.73946850  0.54280800  0.76690545     0.03500
C2361       C  0.71719253  0.53126164  0.78854408    -0.10590
H2362       H  0.76719754  0.51915195  0.85121172     0.09090
H2363       H  0.78139750  0.56977489  0.76568945     0.06620
H2364       H  0.69461463  0.52364263  0.77926084     0.06470
C2365       C  0.72548655  0.55949287  0.67855782     0.03510
C2366       C  0.71664937  0.55231982  0.71061882    -0.12640
C2367       C  0.73919074  0.53910605  0.73126145     0.01010
C2368       C  0.76767322  0.52950424  0.71751099    -0.11170
C2369       C  0.78010844  0.54683561  0.69227277     0.03500
C2370       C  0.75842710  0.56215479  0.67211128    -0.10590
H2371       H  0.69296447  0.55579580  0.71940549     0.09090
H2372       H  0.78240825  0.51326538  0.73009596     0.06620
H2373       H  0.76690509  0.57458972  0.65132027     0.06470
C2374       C  0.86902953  0.53881802  0.67913896     0.03510
C2375       C  0.87815491  0.54316454  0.71165965    -0.12640
C2376       C  0.85612281  0.55546541  0.73328729     0.01010
C2377       C  0.82772010  0.56691636  0.72029234    -0.11170
C2378       C  0.81496188  0.55273650  0.69287425     0.03500
C2379       C  0.83618998  0.53830921  0.67187265    -0.10590
H2380       H  0.90178733  0.53797855  0.72005057     0.09090
H2381       H  0.81356330  0.58282812  0.73401797     0.06620
H2382       H  0.82751904  0.52823694  0.64972454     0.06470
C2383       C  0.53492412  0.72045074  0.81948609     0.03510
C2384       C  0.53679820  0.75285947  0.82892192    -0.12640
C2385       C  0.54949798  0.77492227  0.80767039     0.01010
C2386       C  0.56266659  0.76274316  0.77966620    -0.11170
C2387       C  0.55042843  0.73504038  0.76576646     0.03500
C2388       C  0.53724927  0.71267395  0.78653395    -0.10590
H2389       H  0.52991254  0.76047166  0.85255188     0.09090
H2390       H  0.57884957  0.77689336  0.76654061     0.06620
H2391       H  0.53055970  0.68935628  0.77779659     0.06470
C2392       C  0.55206827  0.86485894  0.82284074     0.03510
C2393       C  0.55455986  0.83189581  0.82998979    -0.12640
C2394       C  0.54235920  0.80980467  0.80816328     0.01010
C2395       C  0.52662290  0.82202921  0.78157392    -0.11170
C2396       C  0.53557074  0.85138147  0.76884746     0.03500
C2397       C  0.54677352  0.87408772  0.79057102    -0.10590
H2398       H  0.56425593  0.82389753  0.85250788     0.09090
H2399       H  0.51205548  0.80663507  0.76781018     0.06620
H2400       H  0.55019950  0.89832128  0.78272766     0.06470
C2401       C  0.56169698  0.72427493  0.67590637     0.03510
C2402       C  0.55994468  0.71489772  0.70835537    -0.12640
C2403       C  0.54585539  0.73560170  0.73027633     0.01010
C2404       C  0.53150530  0.76275376  0.71778914    -0.11170
C2405       C  0.54319253  0.77710012  0.69020726     0.03500
C2406       C  0.55689887  0.75673397  0.66763536    -0.10590
H2407       H  0.56773326  0.69152553  0.71581031     0.09090
H2408       H  0.51556941  0.77573407  0.73226165     0.06620
H2409       H  0.56241607  0.76533252  0.64402747     0.06470
C2410       C  0.53149291  0.86726254  0.67831731     0.03510
C2411       C  0.52963225  0.87453387  0.71152360    -0.12640
C2412       C  0.54086221  0.85206131  0.73345580     0.01010
C2413       C  0.55553851  0.82532691  0.72070825    -0.11170
C2414       C  0.54602242  0.81280230  0.69145650     0.03500
C2415       C  0.53540118  0.83482764  0.66876836    -0.10590
H2416       H  0.52149945  0.89755829  0.71971134     0.09090
H2417       H  0.56965463  0.81119500  0.73586341     0.06620
H2418       H  0.53188123  0.82734665  0.64431561     0.06470
O2419       O  0.95572184  0.99407944  0.50080876    -0.86110
O2420       O  0.63559513  0.99350101  0.49673823    -0.86280
O2421       O  0.54586266  0.95502265  0.94812450    -0.87950
O2422       O  0.54353907  0.95454865  0.55142201    -0.86700
O2423       O  0.54536903  0.99322092  0.59011227    -0.86290
O2424       O  0.54599811  0.99335258  0.90936781    -0.87660
O2425       O  0.59737977  0.95478367  0.49744228    -0.86140
O2426       O  0.99393146  0.95544278  0.49979806    -0.85730
Zr2427     Zr  0.54590233  0.98112377  0.49986506     2.84310
O2428       O  0.57876265  0.51278659  0.53230848    -1.07700
O2429       O  0.51330531  0.51281072  0.96760106    -1.08430
C2430       C  0.96479665  0.96482722  0.50099254     1.07000
C2431       C  0.62644607  0.96408960  0.49551314     1.06940
C2432       C  0.54682169  0.96411600  0.91879655     1.09920
C2433       C  0.54300620  0.96397183  0.58075802     1.07700
H2434       H  0.59044717  0.50040808  0.95437522     0.33260
O2435       O  0.57741298  0.51350073  0.96792336    -1.28660
H2436       H  0.50129187  0.49988266  0.54516051     0.32930
O2437       O  0.51437045  0.51320722  0.53199748    -1.30340
O2438       O  0.63504650  0.59823623  0.50249803    -0.86110
O2439       O  0.95524060  0.59651058  0.50044400    -0.87600
O2440       O  0.59655075  0.54445608  0.90951748    -0.86180
O2441       O  0.59784591  0.54751027  0.59015459    -0.86230
O2442       O  0.99557455  0.54332886  0.59117648    -0.85940
O2443       O  0.99375503  0.54692862  0.90969564    -0.85750
O2444       O  0.54202270  0.63588034  0.94834349    -0.86120
O2445       O  0.54709940  0.63560584  0.55199864    -0.85580
O2446       O  0.54330760  0.59686971  0.90989572    -0.86650
O2447       O  0.54795191  0.59682301  0.59054061    -0.85810
O2448       O  0.63520934  0.54715747  0.94767486    -0.86200
O2449       O  0.95563679  0.54617412  0.94857433    -0.85930
O2450       O  0.95707271  0.54270885  0.55255092    -0.85580
O2451       O  0.63603306  0.54745021  0.55178520    -0.85980
O2452       O  0.59631972  0.63625762  0.50247305    -0.86280
O2453       O  0.99348052  0.63508667  0.49980659    -0.87620
Zr2454     Zr  0.60978481  0.54572717  0.49973963     2.83100
Zr2455     Zr  0.98207227  0.54526952  0.50039576     2.83500
Zr2456     Zr  0.54528212  0.54523687  0.93585126     2.84090
Zr2457     Zr  0.54640327  0.54509426  0.56416858     2.83360
Zr2458     Zr  0.54525664  0.60953196  0.50010355     2.84220
O2459       O  0.51360220  0.57781420  0.53299606    -1.08190
O2460       O  0.57767872  0.57805682  0.96743262    -1.07690
C2461       C  0.62553693  0.62752748  0.50394020     1.06970
C2462       C  0.96435525  0.62581605  0.49981884     1.09590
C2463       C  0.62581978  0.54574170  0.91831056     1.07140
C2464       C  0.62690865  0.54881940  0.58115601     1.07500
C2465       C  0.96645478  0.54171290  0.58190536     1.07080
C2466       C  0.96482154  0.54736024  0.91930983     1.06640
C2467       C  0.54127426  0.62614423  0.91909626     1.07060
C2468       C  0.54839546  0.62605243  0.58117447     1.06580
H2469       H  0.50005732  0.59029158  0.95511962     0.33250
O2470       O  0.51353037  0.57712578  0.96819514    -1.29290
H2471       H  0.59049828  0.59052581  0.54504795     0.33280
O2472       O  0.57738864  0.57720180  0.53169293    -1.30670
C2473       C  0.51616662  0.89002589  0.62551323    -0.11890
C2474       C  0.53296394  0.89313514  0.65426048     0.05110
C2475       C  0.55276481  0.92006649  0.65876565    -0.07180
C2476       C  0.55489526  0.94305292  0.63476716    -0.07920
C2477       C  0.53872360  0.93951822  0.60576965    -0.02480
C2478       C  0.51856168  0.91295785  0.60141191     0.04340
N2479       N  0.49887462  0.90992648  0.57365367     0.66850
H2480       H  0.50046706  0.86994921  0.62203838     0.15750
H2481       H  0.57050547  0.96321622  0.63826631     0.15460
N2482       N  0.57249185  0.92357290  0.68650974     0.74550
O2483       O  0.49480526  0.88303655  0.56080324    -0.38900
O2484       O  0.48137018  0.93280949  0.56544799    -0.38840
O2485       O  0.59095208  0.90139072  0.69461250    -0.39540
O2486       O  0.57533772  0.95047026  0.69967466    -0.39610
C2487       C  0.58153679  0.66409536  0.61095976    -0.11890
C2488       C  0.55153720  0.65063147  0.60585228     0.05110
C2489       C  0.52535848  0.66160359  0.62347031    -0.07180
C2490       C  0.53015228  0.68604550  0.64572439    -0.07920
C2491       C  0.56008760  0.69956145  0.65099987    -0.02480
C2492       C  0.58638245  0.68866527  0.63337041     0.04340
N2493       N  0.61773311  0.70166628  0.63778897     0.66850
H2494       H  0.60126716  0.65538832  0.59705627     0.15750
H2495       H  0.01026552  0.69451141  0.65958806     0.15460
N2496       N  0.99390594  0.64890445  0.61895000     0.74550
O2497       O  0.64138311  0.68776783  0.62588553    -0.38900
O2498       O  0.62208238  0.72758229  0.65241308    -0.38840
O2499       O  0.98961623  0.62072272  0.60943566    -0.39540
O2500       O  0.97007205  0.66533755  0.62646987    -0.39610
C2501       C  0.53525019  0.90921921  0.90022534    -0.11890
C2502       C  0.54951388  0.93871522  0.89438257     0.05110
C2503       C  0.56629662  0.94298505  0.86567802    -0.07180
C2504       C  0.56774682  0.91821593  0.84337195    -0.07920
C2505       C  0.55258799  0.88911792  0.84865077    -0.02480
C2506       C  0.53597234  0.88468347  0.87759452     0.04340
N2507       N  0.51793870  0.85645025  0.88368582     0.66850
H2508       H  0.52205552  0.90567782  0.92199232     0.15750
H2509       H  0.58120491  0.92172050  0.82179140     0.15460
N2510       N  0.58284202  0.97183493  0.85899077     0.74550
O2511       O  0.51912900  0.84363160  0.91082293    -0.38900
O2512       O  0.49700813  0.84753282  0.86406201    -0.38840
O2513       O  0.60307195  0.98225563  0.87858434    -0.39540
O2514       O  0.58013959  0.48382278  0.83096959    -0.39610
C2515       C  0.51404976  0.69717787  0.86993862    -0.11890
C2516       C  0.53484887  0.69519749  0.84401645     0.05110
C2517       C  0.55757379  0.67046737  0.84325288    -0.07180
C2518       C  0.55841759  0.64818512  0.86781519    -0.07920
C2519       C  0.53792480  0.65015935  0.89373987    -0.02480
C2520       C  0.51515003  0.67480794  0.89477139     0.04340
N2521       N  0.49239463  0.67682700  0.92000276     0.66850
H2522       H  0.49654993  0.71598602  0.87060071     0.15750
H2523       H  0.57650661  0.63009908  0.86755134     0.15460
N2524       N  0.58144237  0.66879161  0.81907180     0.74550
O2525       O  0.98295330  0.70352561  0.92971403    -0.38900
O2526       O  0.97867776  0.65196198  0.92969104    -0.38840
O2527       O  0.59848080  0.69273557  0.81339653    -0.39540
O2528       O  0.58907876  0.64219022  0.80737231    -0.39610
C2529       C  0.92304603  0.52385035  0.65940812    -0.11890
C2530       C  0.89307911  0.53699759  0.65315811     0.05110
C2531       C  0.88748906  0.55061089  0.62265193    -0.07180
C2532       C  0.91139066  0.55047726  0.59978991    -0.07920
C2533       C  0.94161240  0.53860952  0.60658245    -0.02480
C2534       C  0.94732552  0.52482275  0.63679649     0.04340
N2535       N  0.97720099  0.51078423  0.64471141     0.66850
H2536       H  0.92781191  0.51234878  0.68193917     0.15750
H2537       H  0.90666986  0.56153405  0.57696290     0.15460
N2538       N  0.85865986  0.56686069  0.61491341     0.74550
O2539       O  0.99012303  0.51682897  0.67122566    -0.38900
O2540       O  0.48791103  0.48845519  0.62778962    -0.38840
O2541       O  0.85072112  0.59127697  0.63052026    -0.39540
O2542       O  0.84422168  0.56028232  0.58932985    -0.39610
C2543       C  0.68348788  0.54792771  0.59807599    -0.11890
C2544       C  0.65176366  0.55295655  0.60622541     0.05110
C2545       C  0.64489600  0.56309363  0.63768492    -0.07210
C2546       C  0.66953630  0.56814788  0.65959961    -0.07920
C2547       C  0.70116967  0.56082130  0.65225682    -0.02480
C2548       C  0.70790047  0.55072427  0.62057107     0.04340
N2549       N  0.73884697  0.54098539  0.61090776     0.66850
H2550       H  0.68947420  0.54005492  0.57425116     0.15750
H2551       H  0.66328251  0.57674598  0.68301348     0.15460
N2552       N  0.61309267  0.56734120  0.64844693     0.74550
O2553       O  0.75024173  0.51524262  0.62126652    -0.38900
O2554       O  0.75183580  0.55448116  0.58756445    -0.38840
O2555       O  0.59634525  0.54315804  0.65401600    -0.39540
O2556       O  0.60460940  0.59397797  0.65940574    -0.39610
C2557       C  0.66797856  0.53629200  0.83831083    -0.11890
C2558       C  0.70009503  0.53382242  0.84747356     0.05110
C2559       C  0.70711477  0.53950887  0.88032453    -0.07180
C2560       C  0.68257980  0.54224451  0.90250684    -0.07920
C2561       C  0.65074597  0.54413633  0.89310282    -0.02480
C2562       C  0.64384263  0.54355749  0.86001095     0.04340
N2563       N  0.61355628  0.55318849  0.84752350     0.66850
H2564       H  0.66116212  0.53526751  0.81363662     0.15750
H2565       H  0.68888575  0.54491636  0.92741826     0.15460
N2566       N  0.73833962  0.54661428  0.89157584     0.74550
O2567       O  0.60406646  0.54253300  0.82100278    -0.38900
O2568       O  0.60067289  0.57800653  0.85827916    -0.38840
O2569       O  0.75150042  0.57204458  0.88278236    -0.39540
O2570       O  0.74933452  0.53201462  0.91541819    -0.39610
C2571       C  0.89837118  0.52707632  0.86238201    -0.11890
C2572       C  0.89122122  0.55713283  0.84970972     0.05110
C2573       C  0.90848765  0.58410582  0.85991431    -0.07180
C2574       C  0.93295623  0.57987210  0.88238315    -0.07920
C2575       C  0.94013928  0.54971416  0.89477924    -0.02480
C2576       C  0.92280400  0.52282748  0.88465283     0.04340
N2577       N  0.92986898  0.99113766  0.89630137     0.66850
H2578       H  0.88527693  0.00623722  0.85411025     0.15750
H2579       H  0.94620453  0.60030526  0.89084895     0.15460
N2580       N  0.90124259  0.61563364  0.84850432     0.74550
O2581       O  0.90909767  0.96960184  0.89509633    -0.38900
O2582       O  0.95751746  0.98375803  0.90502970    -0.38840
O2583       O  0.87411195  0.62225488  0.83774351    -0.39540
O2584       O  0.92114897  0.63780498  0.85168237    -0.39610
C2585       C  0.68198409  0.94541500  0.50276269    -0.11890
C2586       C  0.65135832  0.93924145  0.49138070     0.05110
C2587       C  0.64520468  0.90923431  0.97688646    -0.07180
C2588       C  0.66943120  0.88647816  0.97454979    -0.07920
C2589       C  0.69994800  0.89246330  0.48656847    -0.02480
C2590       C  0.70596588  0.92238150  0.50131141     0.04340
N2591       N  0.73541286  0.92917624  0.51705807     0.66850
H2592       H  0.68699258  0.96785435  0.51451969     0.15750
H2593       H  0.66435266  0.86413548  0.96269576     0.15460
N2594       N  0.61499724  0.90191463  0.96316074     0.74550
O2595       O  0.74847572  0.95588477  0.51329489    -0.38900
O2596       O  0.74542429  0.91097045  0.53874086    -0.38840
O2597       O  0.60403337  0.91924461  0.94126914    -0.39540
O2598       O  0.60217054  0.87555288  0.46859167    -0.39610
C2599       C  0.68182153  0.64521709  0.50208820    -0.11890
C2600       C  0.65015187  0.65276791  0.50843351     0.05110
C2601       C  0.64327128  0.68361715  0.02025481    -0.07180
C2602       C  0.66793368  0.70521134  0.02639732    -0.07920
C2603       C  0.69947211  0.69831471  0.51856516    -0.02480
C2604       C  0.70612479  0.66763337  0.50575789     0.04340
N2605       N  0.73676973  0.65926148  0.49395161     0.66850
H2606       H  0.68773664  0.62203470  0.49245649     0.15750
H2607       H  0.66185626  0.72816038  0.03632926     0.15460
N2608       N  0.61145079  0.69418718  0.02519753     0.74550
O2609       O  0.74954692  0.63354223  0.50262555    -0.38900
O2610       O  0.74815559  0.67404796  0.97061551    -0.38840
O2611       O  0.60384569  0.70613065  0.55168648    -0.39540
O2612       O  0.59392875  0.69932481  0.00131879    -0.39610
C2613       C  0.92044132  0.70455682  0.50588863    -0.11890
C2614       C  0.89149416  0.69731385  0.99087680     0.05110
C2615       C  0.88697478  0.66647370  0.97800466    -0.07180
C2616       C  0.91077237  0.64341934  0.98215503    -0.07920
C2617       C  0.93941599  0.65062670  0.49790985    -0.02480
C2618       C  0.94427331  0.68180632  0.50961619     0.04340
N2619       N  0.97242894  0.69053647  0.52680133     0.66850
H2620       H  0.92403788  0.72775789  0.51661932     0.15750
H2621       H  0.90734923  0.61996299  0.97194330     0.15460
N2622       N  0.85924716  0.65848984  0.95967432     0.74550
O2623       O  0.98521590  0.71719480  0.52192080    -0.38900
O2624       O  0.48170141  0.67396669  0.55006850    -0.38840
O2625       O  0.84692680  0.67868238  0.94118667    -0.39540
O2626       O  0.84895740  0.63033870  0.45937973    -0.39610
C2627       C  0.94559789  0.91023904  0.98913159    -0.11890
C2628       C  0.93994997  0.94002247  0.50301433     0.05110
C2629       C  0.91100495  0.94514129  0.51904795    -0.07180
C2630       C  0.88855446  0.92069210  0.52054963    -0.07920
C2631       C  0.89370729  0.89127747  0.50552336    -0.02480
C2632       C  0.92271469  0.88619339  0.98942124     0.04340
N2633       N  0.92870366  0.85775423  0.97139865     0.66850
H2634       H  0.96748138  0.90609676  0.97645671     0.15750
H2635       H  0.86673617  0.92498444  0.53324837     0.15460
N2636       N  0.90412585  0.97474696  0.53444720     0.74550
O2637       O  0.90950306  0.84908214  0.94994902    -0.38900
O2638       O  0.95542178  0.84445676  0.97311838    -0.38840
O2639       O  0.89333219  0.49756457  0.51826349    -0.39540
O2640       O  0.90214691  0.97578134  0.56441559    -0.39610
loop_ 
_geom_bond_atom_site_label_1 
_geom_bond_atom_site_label_2 
_geom_bond_distance 
_geom_bond_site_symmetry_2 
_ccdc_geom_bond_type 
C1            C6   1.425   1_554  A
C1          C332   1.421       .  A
C1          C321   1.490       .  S
C2            C3   1.400       .  A
C2          C331   1.421       .  A
C2            H7   1.083       .  S
C3            C4   1.399       .  A
C3           C12   1.498       .  S
C4          C335   1.405       .  A
C4            H8   1.068       .  S
C5            C6   1.403       .  A
C5          C334   1.405       .  A
C5           C30   1.505       .  S
C6            H9   1.082   1_556  S
C10          C11   1.421       .  A
C10         C345   1.425       .  A
C10         C304   1.491       .  S
C11          C12   1.398       .  A
C11          H16   1.083       .  S
C12          C13   1.401       .  A
C13         C344   1.406       .  A
C13          H17   1.069       .  S
C14          C15   1.403       .  A
C14         C343   1.406       .  A
C14          C21   1.506       .  S
C15         C340   1.425   1_554  A
C15          H18   1.081       .  S
C19          C20   1.433       .  A
C19          C24   1.438       .  A
C19         C293   1.507       .  S
C20          C21   1.405       .  A
C20          H25   1.082       .  S
C21          C22   1.388   1_554  A
C22          C23   1.394   1_556  A
C22          H26   1.057       .  S
C23          C24   1.404       .  A
C23          C32   1.514       .  S
C24          H27   1.080       .  S
C28          C29   1.431       .  A
C28          C33   1.435       .  A
C28         C279   1.499       .  S
C29          C30   1.403       .  A
C29          H34   1.083       .  S
C30          C31   1.389   1_556  A
C31          C32   1.395       .  A
C31          H35   1.058       .  S
C32          C33   1.405   1_554  A
C33          H36   1.081       .  S
C37          C38   1.420       .  A
C37          C42   1.424       .  A
C37         C262   1.475       .  S
C38          C39   1.399       .  A
C38          H43   1.083       .  S
C39          C40   1.399       .  A
C39          C48   1.502       .  S
C40          C41   1.395       .  A
C40          H44   1.060       .  S
C41          C42   1.405       .  A
C41          C66   1.505       .  S
C42          H45   1.083       .  S
C46          C47   1.433       .  A
C46          C51   1.439       .  A
C46         C248   1.522       .  S
C47          C48   1.404       .  A
C47          H52   1.079       .  S
C48          C49   1.390       .  A
C49          C50   1.387       .  A
C49          H53   1.056       .  S
C50          C51   1.401       .  A
C50          C57   1.504       .  S
C51          H54   1.078       .  S
C55          C56   1.432       .  A
C55          C60   1.426       .  A
C55         C237   1.506       .  S
C56          C57   1.401       .  A
C56          H61   1.079       .  S
C57          C58   1.398       .  A
C58          C59   1.393       .  A
C58          H62   1.064       .  S
C59          C60   1.403       .  A
C59          C68   1.495       .  S
C60          H63   1.082       .  S
C64          C65   1.428       .  A
C64          C69   1.421       .  A
C64         C220   1.497       .  S
C65          C66   1.402       .  A
C65          H70   1.081       .  S
C66          C67   1.403       .  A
C67          C68   1.400       .  A
C67          H71   1.067       .  S
C68          C69   1.399       .  A
C69          H72   1.083       .  S
C73          C74   1.420       .  A
C73          C78   1.424       .  A
C73         C206   1.481       .  S
C74          C75   1.399       .  A
C74          H79   1.083       .  S
C75          C76   1.399       .  A
C75          C84   1.497       .  S
C76          C77   1.399       .  A
C76          H80   1.064       .  S
C77          C78   1.402       .  A
C77          C93   1.502       .  S
C78          H81   1.083       .  S
C82          C83   1.423       .  A
C82          C87   1.427       .  A
C82         C195   1.486       .  S
C83          C84   1.400       .  A
C83          H88   1.083       .  S
C84          C85   1.396       .  A
C85          C86   1.400       .  A
C85          H89   1.062       .  S
C86          C87   1.399       .  A
C86         C102   1.504       .  S
C87          H90   1.082       .  S
C91          C92   1.422       .  A
C91          C96   1.424       .  A
C91         C181   1.473       .  S
C92          C93   1.400       .  A
C92          H97   1.083       .  S
C93          C94   1.395       .  A
C94          C95   1.400       .  A
C94          H98   1.060       .  S
C95          C96   1.403       .  A
C95         C104   1.507       .  S
C96          H99   1.083       .  S
C100        C101   1.429       .  A
C100        C105   1.430       .  A
C100        C164   1.488       .  S
C101        C102   1.402       .  A
C101        H106   1.083       .  S
C102        C103   1.391       .  A
C103        C104   1.392       .  A
C103        H107   1.055       .  S
C104        C105   1.403       .  A
C105        H108   1.082       .  S
O109        C120   1.288       .  A
O109       Zr805   2.424       .  S
O110        C121   1.297       .  A
O110       Zr804   2.456       .  S
O111        C122   1.291       .  A
O111       Zr447   2.429       .  S
O112        C123   1.293       .  A
O112       Zr117   2.442   1_554  S
O113        C123   1.293       .  A
O113       Zr807   2.442       .  S
O114        C122   1.293       .  A
O114       Zr806   2.444       .  S
O115        C121   1.294       .  A
O115       Zr117   2.445       .  S
O116        C120   1.295   1_556  A
O116      Zr1437   2.449       .  S
Zr117       O441   2.429       .  S
Zr117      O1436   2.449   1_455  S
Zr117       O778   2.352   1_556  S
Zr117      O1109   2.345       .  S
Zr117       O787   2.330   1_556  S
Zr117      O1115   2.338       .  S
O118       Zr144   2.354   1_554  S
O118       Zr147   2.348       .  S
O118       Zr777   2.351   1_544  S
O119       Zr146   2.345       .  S
O119      Zr1107   2.345   1_545  S
O119      Zr1795   2.347   1_455  S
C120        C318   1.484       .  S
C121        C276   1.494       .  S
C122        C192   1.483       .  S
C123        C167   1.484       .  S
H124        O125   0.965       .  S
O125       Zr146   2.330       .  S
O125      Zr1107   2.338   1_545  S
O125       Zr474   2.337       .  S
H126        O127   0.965   1_565  S
O127       Zr147   2.330       .  S
O127       Zr777   2.330   1_544  S
O127      Zr1465   2.331   1_455  S
O128        C151   1.297       .  A
O128       Zr144   2.455   1_554  S
O129        C152   1.292   1_554  A
O129       Zr145   2.435       .  S
O130        C153   1.291       .  A
O130       Zr146   2.440       .  S
O131        C154   1.289       .  A
O131       Zr147   2.431       .  S
O132        C155   1.292       .  A
O132      Zr1467   2.438       .  S
O133        C156   1.291       .  A
O133      Zr1466   2.436       .  S
O134        C157   1.293       .  A
O134       Zr478   2.445       .  S
O135        C158   1.291       .  A
O135       Zr148   2.437       .  S
O136        C157   1.292       .  A
O136       Zr146   2.433       .  S
O137        C158   1.292       .  A
O137       Zr147   2.438       .  S
O138        C153   1.294       .  A
O138       Zr474   2.443       .  S
O139        C156   1.292       .  A
O139       Zr475   2.439       .  S
O140        C155   1.293       .  A
O140       Zr145   2.439       .  S
O141        C154   1.295       .  A
O141       Zr144   2.446   1_554  S
O142        C151   1.291       .  A
O142       Zr148   2.437       .  S
O143        C152   1.293       .  A
O143      Zr1468   2.439   1_556  S
Zr144       O770   2.455   1_545  S
Zr144       O468   2.444       .  S
Zr144       O162   2.331   1_556  S
Zr144       O455   2.337       .  S
Zr144       O480   2.351       .  S
Zr145       O769   2.424   1_545  S
Zr145       O469   2.439   1_554  S
Zr145      O1769   2.347   1_554  S
Zr145      O1447   2.331       .  S
Zr145      O1469   2.344       .  S
Zr145      O1810   2.329   1_554  S
Zr146       O774   2.443   1_545  S
Zr146      O1453   2.436   1_455  S
Zr146       O150   2.348       .  S
Zr146       O160   2.335       .  S
Zr147       O773   2.442   1_545  S
Zr147      O1452   2.438   1_455  S
Zr147       O149   2.350       .  S
Zr147       O162   2.331       .  S
Zr148       O464   2.445   1_554  S
Zr148      O1463   2.440   1_454  S
Zr148       O149   2.348       .  S
Zr148       O162   2.333       .  S
Zr148       O480   2.349   1_554  S
Zr148       O490   2.329   1_554  S
O149      Zr1465   2.344   1_455  S
O150       Zr474   2.351       .  S
O150       Zr478   2.349       .  S
C151        C290   1.498       .  S
C152        C307   1.485       .  S
C153        C251   1.499       .  S
C154        C234   1.494       .  S
C155        C223   1.486       .  S
C156        C265   1.466       .  S
C157        C209   1.476       .  S
C158        C178   1.467       .  S
H159        O160   0.965       .  S
O160      Zr1795   2.329   1_455  S
O160       Zr478   2.329       .  S
H161        O162   0.965       .  S
C163        C164   1.403       .  A
C163        C168   1.404       .  A
C163        H170   1.083       .  S
C164        C165   1.420       .  A
C165        C166   1.402       .  A
C165        N172   1.436       .  S
C166        C167   1.401       .  A
C166        H171   1.084       .  S
C167        C168   1.416       .  A
C168        N169   1.434   1_455  S
N169        O173   1.263       .  A
N169        O174   1.262       .  A
N172        O175   1.263       .  A
N172        O176   1.263       .  A
C177        C178   1.405       .  A
C177        C182   1.409       .  A
C177        H184   1.084       .  S
C178        C179   1.412       .  A
C179        C180   1.401       .  A
C179       N1506   1.445   1_455  S
C180        C181   1.405       .  A
C180       H1505   1.084       .  S
C181        C182   1.415       .  A
C182        N183   1.446       .  S
N183        O187   1.263       .  A
N183        O188   1.262       .  A
H185       C1500   1.084       .  S
N186       C1499   1.445       .  S
N186        O189   1.262       .  A
N186        O190   1.263       .  A
C191        C192   1.402       .  A
C191        C196   1.401       .  A
C191        H198   1.084       .  S
C192        C193   1.414       .  A
C193        C194   1.400       .  A
C193        N200   1.430       .  S
C194        C195   1.401       .  A
C194        H199   1.083       .  S
C195        C196   1.420       .  A
C196        N197   1.436       .  S
N197        O201   1.263       .  A
N197        O202   1.262   1_455  A
N200        O203   1.262       .  A
N200        O864   1.262       .  A
O204        N860   1.262       .  A
C205        C206   1.405       .  A
C205        C210   1.407       .  A
C205        H212   1.083   1_455  S
C206        C207   1.416       .  A
C207        C208   1.396       .  A
C207        N214   1.437       .  S
C208        C209   1.397       .  A
C208        H213   1.079       .  S
C209        C210   1.415       .  A
C210        N211   1.437   1_455  S
N211       O1535   1.263       .  A
N211       O1536   1.262       .  A
N214        O217   1.263       .  A
N214        O218   1.263       .  A
O215       N1531   1.263       .  A
O216       N1531   1.262       .  A
C219        C220   1.407       .  A
C219        C224   1.403       .  A
C219        H226   1.082       .  S
C220        C221   1.423       .  A
C221        C222   1.398       .  A
C221        N228   1.434       .  S
C222        C223   1.400       .  A
C222        H227   1.084       .  S
C223        C224   1.416       .  A
C224        N225   1.433       .  S
N225        O229   1.263       .  A
N225       O1550   1.261   1_545  A
N228        O231   1.262       .  A
N228        O232   1.263       .  A
O230       N1545   1.261   1_565  A
C233        C234   1.403       .  A
C233        C238   1.400       .  A
C233        H240   1.084       .  S
C234        C235   1.418       .  A
C235        C236   1.402       .  A
C235        N242   1.433       .  S
C236        C237   1.409       .  A
C236        H241   1.080       .  S
C237        C238   1.425       .  A
C238        N239   1.432       .  S
N239        O243   1.262       .  A
N239        O244   1.263       .  A
N242        O245   1.263       .  A
N242        O246   1.262       .  A
C247        C248   1.414       .  A
C247        C252   1.405       .  A
C247        H254   1.074       .  S
C248        C249   1.429       .  A
C249        C250   1.403       .  A
C249        N256   1.432       .  S
C250        C251   1.404       .  A
C250        H255   1.083       .  S
C251        C252   1.418       .  A
C252        N253   1.440       .  S
N253        O257   1.262       .  A
N253        O258   1.260       .  A
N256        O259   1.263       .  A
N256        O260   1.262       .  A
C261        C262   1.405       .  A
C261        C266   1.402       .  A
C261        H928   1.084       .  S
C262        C263   1.413       .  A
C263        C264   1.408       .  A
C263        N270   1.443       .  S
C264        C265   1.405       .  A
C264        H269   1.084       .  S
C265        C266   1.411       .  A
C266        N927   1.445   1_545  S
N267        C926   1.445       .  S
N267        O271   1.263       .  A
N267        O272   1.263       .  A
H268        C921   1.084       .  S
N270        O273   1.263       .  A
N270        O274   1.263       .  A
C275        C276   1.403   1_554  A
C275        C280   1.404       .  A
C275        H282   1.084       .  S
C276        C607   1.419       .  A
C277        C278   1.405       .  A
C277        C606   1.418       .  A
C277        N284   1.432       .  S
C278        C609   1.405       .  A
C278        H283   1.083       .  S
C279        C280   1.423   1_556  A
C279        C608   1.405       .  A
C280        N281   1.436       .  S
N281        O285   1.263       .  A
N281        O286   1.263       .  A
N284        O287   1.261       .  A
N284        O618   1.263       .  A
O288        N614   1.263       .  A
C289        C290   1.404       .  A
C289        C294   1.403       .  A
C289        H296   1.084   1_554  S
C290        C621   1.420       .  A
C291        C292   1.406       .  A
C291        C620   1.420       .  A
C291        N298   1.433       .  S
C292        C623   1.408       .  A
C292        H297   1.081       .  S
C293        C294   1.424       .  A
C293        C622   1.408       .  A
C294        N295   1.434   1_554  S
N295        O299   1.263   1_556  A
N295        O630   1.262       .  A
N298        O302   1.263       .  A
N298        O631   1.262       .  A
O300        N625   1.262       .  A
O301        N628   1.262       .  A
C303        C308   1.398       .  A
C303        C634   1.407   1_554  A
C303        H310   1.084       .  S
C304        C305   1.416       .  A
C304        C633   1.407       .  A
C305        C306   1.408       .  A
C305        N312   1.439       .  S
C306        C637   1.408       .  A
C306        H311   1.084       .  S
C307        C308   1.413   1_556  A
C307        C636   1.408       .  A
C308        N309   1.437       .  S
N309        O313   1.263       .  A
N309       O1634   1.262       .  A
N312        O315   1.263       .  A
N312        O646   1.263       .  A
O314       N1629   1.262       .  A
O316        N642   1.263       .  A
C317        C322   1.400       .  A
C317        C648   1.401       .  A
C317        H324   1.084       .  S
C318        C319   1.417       .  A
C318        C647   1.401   1_554  A
C319        C320   1.402       .  A
C319        N326   1.431       .  S
C320        C321   1.404       .  A
C320        H325   1.083       .  S
C321        C652   1.421   1_554  A
C322        C651   1.421       .  A
C322        N323   1.436       .  S
N323        O327   1.263       .  A
N323        O328   1.263       .  A
N326        O330   1.262       .  A
N326        O989   1.262       .  A
O329        N986   1.262       .  A
C331        C336   1.425       .  A
C331        C651   1.490       .  S
C332        C333   1.400   1_554  A
C332        H337   1.083       .  S
C333        C334   1.399       .  A
C333        C342   1.498   1_556  S
C334        H338   1.068       .  S
C335        C336   1.403       .  A
C335        C360   1.505       .  S
C336        H339   1.082       .  S
C340        C341   1.421       .  A
C340        C634   1.491       .  S
C341        C342   1.398   1_556  A
C341        H346   1.083       .  S
C342        C343   1.401       .  A
C343        H347   1.069       .  S
C344        C345   1.403       .  A
C344        C351   1.506       .  S
C345        H348   1.081       .  S
C349        C350   1.433       .  A
C349        C354   1.438       .  A
C349        C623   1.507       .  S
C350        C351   1.405       .  A
C350        H355   1.082       .  S
C351        C352   1.388       .  A
C352        C353   1.394       .  A
C352        H356   1.057       .  S
C353        C354   1.404       .  A
C353        C362   1.514       .  S
C354        H357   1.080       .  S
C358        C359   1.431       .  A
C358        C363   1.435       .  A
C358        C609   1.499       .  S
C359        C360   1.403       .  A
C359        H364   1.083       .  S
C360        C361   1.389       .  A
C361        C362   1.395       .  A
C361        H365   1.058       .  S
C362        C363   1.405       .  A
C363        H366   1.081       .  S
C367        C368   1.420       .  A
C367        C372   1.424       .  A
C367        C592   1.475       .  S
C368        C369   1.399       .  A
C368        H373   1.083       .  S
C369        C370   1.400       .  A
C369        C378   1.502       .  S
C370        C371   1.396       .  A
C370        H374   1.060       .  S
C371        C372   1.404       .  A
C371        C396   1.505       .  S
C372        H375   1.083       .  S
C376        C377   1.434       .  A
C376        C381   1.439       .  A
C376        C578   1.522       .  S
C377        C378   1.404       .  A
C377        H382   1.079       .  S
C378        C379   1.390       .  A
C379        C380   1.387       .  A
C379        H383   1.056       .  S
C380        C381   1.400       .  A
C380        C387   1.504       .  S
C381        H384   1.078       .  S
C385        C386   1.432       .  A
C385        C390   1.426       .  A
C385        C567   1.507       .  S
C386        C387   1.401       .  A
C386        H391   1.079       .  S
C387        C388   1.397       .  A
C388        C389   1.393       .  A
C388        H392   1.064       .  S
C389        C390   1.403       .  A
C389        C398   1.495       .  S
C390        H393   1.082       .  S
C394        C395   1.428       .  A
C394        C399   1.421       .  A
C394        C550   1.498       .  S
C395        C396   1.402       .  A
C395        H400   1.081       .  S
C396        C397   1.402       .  A
C397        C398   1.400       .  A
C397        H401   1.067       .  S
C398        C399   1.399       .  A
C399        H402   1.083       .  S
C403        C404   1.420       .  A
C403        C408   1.424       .  A
C403        C536   1.482       .  S
C404        C405   1.399       .  A
C404        H409   1.083       .  S
C405        C406   1.399       .  A
C405        C414   1.497       .  S
C406        C407   1.399       .  A
C406        H410   1.065       .  S
C407        C408   1.402       .  A
C407        C423   1.502       .  S
C408        H411   1.083       .  S
C412        C413   1.423       .  A
C412        C417   1.427       .  A
C412        C525   1.486       .  S
C413        C414   1.400       .  A
C413        H418   1.083       .  S
C414        C415   1.396       .  A
C415        C416   1.400       .  A
C415        H419   1.062       .  S
C416        C417   1.399       .  A
C416        C432   1.504       .  S
C417        H420   1.082       .  S
C421        C422   1.422       .  A
C421        C426   1.423       .  A
C421        C511   1.473       .  S
C422        C423   1.400       .  A
C422        H427   1.083       .  S
C423        C424   1.395       .  A
C424        C425   1.400       .  A
C424        H428   1.060       .  S
C425        C426   1.403       .  A
C425        C434   1.507       .  S
C426        H429   1.083       .  S
C430        C431   1.429       .  A
C430        C435   1.430       .  A
C430        C494   1.488       .  S
C431        C432   1.402       .  A
C431        H436   1.083       .  S
C432        C433   1.391       .  A
C433        C434   1.392       .  A
C433        H437   1.055       .  S
C434        C435   1.403       .  A
C435        H438   1.082       .  S
O439        C450   1.288       .  A
O439      Zr1135   2.424       .  S
O440        C451   1.297       .  A
O440      Zr1134   2.455       .  S
O441        C452   1.291       .  A
O442        C453   1.293       .  A
O442       Zr447   2.442       .  S
O443        C453   1.294       .  A
O443      Zr1137   2.443       .  S
O444        C452   1.293       .  A
O444      Zr1136   2.443       .  S
O445        C451   1.294       .  A
O445       Zr447   2.445       .  S
O446        C450   1.295       .  A
O446      Zr1767   2.449       .  S
Zr447      O1766   2.449   1_455  S
Zr447      O1108   2.351       .  S
Zr447       O779   2.345       .  S
Zr447      O1117   2.330       .  S
Zr447       O785   2.338       .  S
O448      Zr1107   2.351   1_545  S
O448       Zr474   2.355       .  S
O448       Zr477   2.348       .  S
O449       Zr777   2.345   1_545  S
O449      Zr1465   2.347   1_456  S
O449       Zr476   2.345       .  S
C450        C648   1.484       .  S
C451        C606   1.494       .  S
C452        C522   1.483       .  S
C453        C497   1.484       .  S
H454        O455   0.965       .  S
O455       Zr777   2.338   1_545  S
O455       Zr476   2.331       .  S
H456        O457   0.965   1_565  S
O457      Zr1107   2.330   1_545  S
O457      Zr1795   2.331   1_455  S
O457       Zr477   2.330       .  S
O458        C481   1.297       .  A
O458       Zr474   2.456       .  S
O459        C482   1.292       .  A
O459       Zr475   2.435       .  S
O460        C483   1.291       .  A
O460       Zr476   2.439       .  S
O461        C484   1.289       .  A
O461       Zr477   2.431       .  S
O462        C485   1.292       .  A
O462      Zr1797   2.438       .  S
O463        C486   1.291       .  A
O463      Zr1796   2.437       .  S
O464        C487   1.293       .  A
O465        C488   1.291       .  A
O465       Zr478   2.436       .  S
O466        C487   1.292       .  A
O466       Zr476   2.433       .  S
O467        C488   1.292       .  A
O467       Zr477   2.438       .  S
O468        C483   1.294       .  A
O469        C486   1.292       .  A
O470        C485   1.293       .  A
O470       Zr475   2.440       .  S
O471        C484   1.295       .  A
O471       Zr474   2.446       .  S
O472        C481   1.290       .  A
O472       Zr478   2.437       .  S
O473        C482   1.293       .  A
O473      Zr1798   2.439       .  S
Zr474      O1100   2.455   1_545  S
Zr474       O492   2.331       .  S
Zr475      O1099   2.424   1_545  S
Zr475      O1439   2.347       .  S
Zr475      O1777   2.331       .  S
Zr475      O1799   2.344       .  S
Zr475      O1480   2.329       .  S
Zr476      O1104   2.443   1_545  S
Zr476      O1783   2.436   1_455  S
Zr476       O480   2.348       .  S
Zr476       O490   2.335       .  S
Zr477      O1103   2.442   1_545  S
Zr477      O1782   2.438   1_455  S
Zr477       O479   2.350       .  S
Zr477       O492   2.331       .  S
Zr478      O1793   2.439   1_455  S
Zr478       O479   2.348       .  S
Zr478       O492   2.333       .  S
O479      Zr1795   2.344   1_455  S
C481        C620   1.498       .  S
C482        C637   1.485       .  S
C483        C581   1.499       .  S
C484        C564   1.494       .  S
C485        C553   1.486       .  S
C486        C595   1.466       .  S
C487        C539   1.476       .  S
C488        C508   1.466       .  S
H489        O490   0.965       .  S
O490      Zr1465   2.329   1_456  S
H491        O492   0.965       .  S
C493        C494   1.403       .  A
C493        C498   1.404       .  A
C493        H500   1.083       .  S
C494        C495   1.420       .  A
C495        C496   1.402       .  A
C495        N502   1.436       .  S
C496        C497   1.401       .  A
C496        H501   1.084       .  S
C497        C498   1.416       .  A
C498        N499   1.434   1_455  S
N499        O503   1.263       .  A
N499        O504   1.262       .  A
N502        O505   1.263       .  A
N502        O506   1.263       .  A
C507        C508   1.405       .  A
C507        C512   1.409       .  A
C507        H514   1.084       .  S
C508        C509   1.412       .  A
C509        C510   1.401       .  A
C509       N1836   1.445   1_455  S
C510        C511   1.405       .  A
C510       H1835   1.084       .  S
C511        C512   1.415       .  A
C512        N513   1.446       .  S
N513        O517   1.263       .  A
N513        O518   1.262       .  A
H515       C1830   1.084       .  S
N516       C1829   1.445       .  S
N516        O519   1.262       .  A
N516        O520   1.263       .  A
C521        C522   1.402       .  A
C521        C526   1.401       .  A
C521        H528   1.084       .  S
C522        C523   1.414       .  A
C523        C524   1.399       .  A
C523        N530   1.430       .  S
C524        C525   1.401       .  A
C524        H529   1.083       .  S
C525        C526   1.420       .  A
C526        N527   1.436       .  S
N527        O531   1.263       .  A
N527        O532   1.262   1_455  A
N530        O533   1.262       .  A
N530       O1194   1.262       .  A
O534       N1190   1.262       .  A
C535        C536   1.405       .  A
C535        C540   1.407       .  A
C535        H542   1.083   1_455  S
C536        C537   1.416       .  A
C537        C538   1.396       .  A
C537        N544   1.437       .  S
C538        C539   1.397       .  A
C538        H543   1.079       .  S
C539        C540   1.415       .  A
C540        N541   1.437   1_455  S
N541       O1865   1.263       .  A
N541       O1866   1.262       .  A
N544        O547   1.263       .  A
N544        O548   1.263       .  A
O545       N1861   1.263       .  A
O546       N1861   1.262       .  A
C549        C550   1.407       .  A
C549        C554   1.403       .  A
C549        H556   1.082       .  S
C550        C551   1.423       .  A
C551        C552   1.398       .  A
C551        N558   1.434       .  S
C552        C553   1.400       .  A
C552        H557   1.084       .  S
C553        C554   1.416       .  A
C554        N555   1.433       .  S
N555        O559   1.263       .  A
N555       O1880   1.261   1_545  A
N558        O561   1.262       .  A
N558        O562   1.263       .  A
O560       N1875   1.261   1_565  A
C563        C564   1.403       .  A
C563        C568   1.400       .  A
C563        H570   1.084       .  S
C564        C565   1.418       .  A
C565        C566   1.402       .  A
C565        N572   1.433       .  S
C566        C567   1.409       .  A
C566        H571   1.080       .  S
C567        C568   1.425       .  A
C568        N569   1.432       .  S
N569        O573   1.262       .  A
N569        O574   1.263       .  A
N572        O575   1.263       .  A
N572        O576   1.262       .  A
C577        C578   1.414       .  A
C577        C582   1.405       .  A
C577        H584   1.074       .  S
C578        C579   1.428       .  A
C579        C580   1.403       .  A
C579        N586   1.432       .  S
C580        C581   1.404       .  A
C580        H585   1.083       .  S
C581        C582   1.418       .  A
C582        N583   1.441       .  S
N583        O587   1.262       .  A
N583        O588   1.260       .  A
N586        O589   1.263       .  A
N586        O590   1.262       .  A
C591        C592   1.405       .  A
C591        C596   1.402       .  A
C591       H1258   1.084       .  S
C592        C593   1.413       .  A
C593        C594   1.408       .  A
C593        N600   1.443       .  S
C594        C595   1.405       .  A
C594        H599   1.084       .  S
C595        C596   1.411       .  A
C596       N1257   1.445   1_545  S
N597       C1256   1.445       .  S
N597        O601   1.263       .  A
N597        O602   1.263       .  A
H598       C1251   1.084       .  S
N600        O603   1.263       .  A
N600        O604   1.263       .  A
C605        C606   1.403       .  A
C605        C610   1.404       .  A
C605        H612   1.084       .  S
C607        C608   1.405       .  A
C607        N614   1.432       .  S
C608        H613   1.083       .  S
C609        C610   1.423       .  A
C610        N611   1.436       .  S
N611        O615   1.263       .  A
N611        O616   1.263       .  A
N614        O617   1.261       .  A
C619        C620   1.403       .  A
C619        C624   1.403       .  A
C619        H626   1.084       .  S
C621        C622   1.406       .  A
C621        N628   1.433       .  S
C622        H627   1.081       .  S
C623        C624   1.425       .  A
C624        N625   1.434       .  S
N625        O629   1.263       .  A
N628        O632   1.263       .  A
C633        C638   1.398       .  A
C633        H640   1.084       .  S
C634        C635   1.416       .  A
C635        C636   1.408       .  A
C635        N642   1.439       .  S
C636        H641   1.084       .  S
C637        C638   1.413       .  A
C638        N639   1.437       .  S
N639        O643   1.263       .  A
N639       O1964   1.262       .  A
N642        O645   1.263       .  A
O644       N1959   1.262       .  A
C647        C652   1.400       .  A
C647        H654   1.084       .  S
C648        C649   1.417       .  A
C649        C650   1.402       .  A
C649        N656   1.431       .  S
C650        C651   1.404       .  A
C650        H655   1.083       .  S
C652        N653   1.436       .  S
N653        O657   1.263       .  A
N653        O658   1.263       .  A
N656       O1319   1.262       .  A
N656        O660   1.262       .  A
O659       N1316   1.262       .  A
C661        C992   1.421       .  A
C661        C666   1.425   1_554  A
C661        C981   1.490       .  S
C662        C991   1.421       .  A
C662        C663   1.400       .  A
C662        H667   1.083       .  S
C663        C664   1.400       .  A
C663        C672   1.498       .  S
C664        C995   1.405       .  A
C664        H668   1.068       .  S
C665        C994   1.405       .  A
C665        C666   1.403       .  A
C665        C690   1.505       .  S
C666        H669   1.082   1_556  S
C670        C671   1.421       .  A
C670       C1005   1.425       .  A
C670        C964   1.491       .  S
C671        C672   1.398       .  A
C671        H676   1.083       .  S
C672        C673   1.401       .  A
C673       C1004   1.406       .  A
C673        H677   1.069       .  S
C674       C1003   1.406       .  A
C674        C675   1.404       .  A
C674        C681   1.506       .  S
C675       C1000   1.425   1_554  A
C675        H678   1.081       .  S
C679        C680   1.433       .  A
C679        C684   1.437       .  A
C679        C953   1.507       .  S
C680        C681   1.405       .  A
C680        H685   1.082       .  S
C681        C682   1.388   1_554  A
C682        C683   1.394   1_556  A
C682        H686   1.057       .  S
C683        C684   1.404       .  A
C683        C692   1.514       .  S
C684        H687   1.080       .  S
C688        C689   1.431       .  A
C688        C693   1.435       .  A
C688        C939   1.498       .  S
C689        C690   1.403       .  A
C689        H694   1.083       .  S
C690        C691   1.389   1_556  A
C691        C692   1.395       .  A
C691        H695   1.058       .  S
C692        C693   1.405   1_554  A
C693        H696   1.081       .  S
C697        C698   1.420       .  A
C697        C702   1.424       .  A
C697        C922   1.475       .  S
C698        C699   1.399       .  A
C698        H703   1.083       .  S
C699        C700   1.400       .  A
C699        C708   1.502       .  S
C700        C701   1.396       .  A
C700        H704   1.060       .  S
C701        C702   1.404       .  A
C701        C726   1.505       .  S
C702        H705   1.083       .  S
C706        C707   1.433       .  A
C706        C711   1.439       .  A
C706        C908   1.522       .  S
C707        C708   1.404       .  A
C707        H712   1.079       .  S
C708        C709   1.390       .  A
C709        C710   1.387       .  A
C709        H713   1.056       .  S
C710        C711   1.400       .  A
C710        C717   1.504       .  S
C711        H714   1.078       .  S
C715        C716   1.432       .  A
C715        C720   1.426       .  A
C715        C897   1.507       .  S
C716        C717   1.401       .  A
C716        H721   1.079       .  S
C717        C718   1.397       .  A
C718        C719   1.393       .  A
C718        H722   1.064       .  S
C719        C720   1.403       .  A
C719        C728   1.495       .  S
C720        H723   1.082       .  S
C724        C725   1.428       .  A
C724        C729   1.421       .  A
C724        C880   1.498       .  S
C725        C726   1.402       .  A
C725        H730   1.081       .  S
C726        C727   1.403       .  A
C727        C728   1.400       .  A
C727        H731   1.067       .  S
C728        C729   1.399       .  A
C729        H732   1.083       .  S
C733        C734   1.420       .  A
C733        C738   1.424       .  A
C733        C866   1.482       .  S
C734        C735   1.399       .  A
C734        H739   1.083       .  S
C735        C736   1.399       .  A
C735        C744   1.497       .  S
C736        C737   1.400       .  A
C736        H740   1.065       .  S
C737        C738   1.402       .  A
C737        C753   1.502       .  S
C738        H741   1.083       .  S
C742        C743   1.423       .  A
C742        C747   1.427       .  A
C742        C855   1.486       .  S
C743        C744   1.400       .  A
C743        H748   1.083       .  S
C744        C745   1.396       .  A
C745        C746   1.399       .  A
C745        H749   1.061       .  S
C746        C747   1.399       .  A
C746        C762   1.504       .  S
C747        H750   1.082       .  S
C751        C752   1.422       .  A
C751        C756   1.424       .  A
C751        C841   1.473       .  S
C752        C753   1.400       .  A
C752        H757   1.083       .  S
C753        C754   1.395       .  A
C754        C755   1.400       .  A
C754        H758   1.060       .  S
C755        C756   1.403       .  A
C755        C764   1.507       .  S
C756        H759   1.083       .  S
C760        C761   1.429       .  A
C760        C765   1.430       .  A
C760        C824   1.488       .  S
C761        C762   1.402       .  A
C761        H766   1.083       .  S
C762        C763   1.391       .  A
C763        C764   1.392       .  A
C763        H767   1.055       .  S
C764        C765   1.403       .  A
C765        H768   1.082       .  S
O769        C780   1.288       .  A
O770        C781   1.297       .  A
O771        C782   1.291       .  A
O771      Zr1107   2.430       .  S
O772        C783   1.293       .  A
O772       Zr777   2.441   1_554  S
O773        C783   1.294       .  A
O774        C782   1.293       .  A
O775        C781   1.294       .  A
O775       Zr777   2.445       .  S
O776        C780   1.295   1_556  A
O776      Zr2097   2.449       .  S
Zr777      O1101   2.429       .  S
Zr777      O2096   2.449   1_455  S
O778       Zr804   2.355   1_554  S
O778       Zr807   2.348       .  S
O779      Zr2455   2.347   1_455  S
O779       Zr806   2.345       .  S
C780        C978   1.484       .  S
C781        C936   1.494       .  S
C782        C852   1.483       .  S
C783        C827   1.484       .  S
H784        O785   0.965       .  S
O785      Zr1134   2.337       .  S
O785       Zr806   2.331       .  S
H786        O787   0.965       .  S
O787      Zr2125   2.331   1_455  S
O787       Zr807   2.330       .  S
O788        C811   1.297       .  A
O788       Zr804   2.457   1_554  S
O789        C812   1.292   1_554  A
O789       Zr805   2.435       .  S
O790        C813   1.291       .  A
O790       Zr806   2.439       .  S
O791        C814   1.290       .  A
O791       Zr807   2.432       .  S
O792        C815   1.292       .  A
O792      Zr2127   2.438       .  S
O793        C816   1.291       .  A
O793      Zr2126   2.437       .  S
O794        C817   1.293       .  A
O794      Zr1138   2.445       .  S
O795        C818   1.291       .  A
O795       Zr808   2.437       .  S
O796        C817   1.292       .  A
O796       Zr806   2.433       .  S
O797        C818   1.292       .  A
O797       Zr807   2.438       .  S
O798        C813   1.294       .  A
O798      Zr1134   2.444       .  S
O799        C816   1.292       .  A
O799      Zr1135   2.439       .  S
O800        C815   1.293       .  A
O800       Zr805   2.439       .  S
O801        C814   1.295       .  A
O801       Zr804   2.446   1_554  S
O802        C811   1.290       .  A
O802       Zr808   2.435       .  S
O803        C812   1.293       .  A
O803      Zr2128   2.440   1_556  S
Zr804      O1128   2.443       .  S
Zr804      O1115   2.337       .  S
Zr804      O1140   2.351       .  S
Zr804       O822   2.331   1_556  S
Zr805      O1129   2.439   1_554  S
Zr805      O2429   2.347   1_554  S
Zr805      O2107   2.331       .  S
Zr805      O2129   2.344       .  S
Zr805      O2470   2.329   1_554  S
Zr806      O2113   2.437   1_455  S
Zr806       O810   2.348       .  S
Zr806       O820   2.335       .  S
Zr807      O2112   2.438   1_455  S
Zr807       O809   2.350       .  S
Zr807       O822   2.331       .  S
Zr808      O1124   2.445   1_554  S
Zr808      O2123   2.439   1_454  S
Zr808       O809   2.348       .  S
Zr808      O1140   2.349   1_554  S
Zr808       O822   2.334       .  S
Zr808      O1150   2.329   1_554  S
O809      Zr2125   2.344   1_455  S
O810      Zr1134   2.351       .  S
O810      Zr1138   2.349       .  S
C811        C950   1.498       .  S
C812        C967   1.485       .  S
C813        C911   1.499       .  S
C814        C894   1.494       .  S
C815        C883   1.486       .  S
C816        C925   1.466       .  S
C817        C869   1.476       .  S
C818        C838   1.467       .  S
H819        O820   0.965       .  S
O820      Zr2455   2.329   1_455  S
O820      Zr1138   2.329       .  S
H821        O822   0.965       .  S
C823        C824   1.403       .  A
C823        C828   1.404       .  A
C823        H830   1.083       .  S
C824        C825   1.420       .  A
C825        C826   1.402       .  A
C825        N832   1.436       .  S
C826        C827   1.401       .  A
C826        H831   1.084       .  S
C827        C828   1.416       .  A
C828        N829   1.434   1_455  S
N829        O833   1.263       .  A
N829        O834   1.262       .  A
N832        O835   1.263       .  A
N832        O836   1.263       .  A
C837        C838   1.405       .  A
C837        C842   1.409       .  A
C837        H844   1.084       .  S
C838        C839   1.412       .  A
C839        C840   1.401       .  A
C839       N2166   1.445   1_455  S
C840        C841   1.405       .  A
C840       H2165   1.084       .  S
C841        C842   1.415       .  A
C842        N843   1.446       .  S
N843        O847   1.263       .  A
N843        O848   1.262       .  A
H845       C2160   1.084       .  S
N846       C2159   1.445       .  S
N846        O849   1.262       .  A
N846        O850   1.263       .  A
C851        C852   1.402       .  A
C851        C856   1.401       .  A
C851        H858   1.084       .  S
C852        C853   1.414       .  A
C853        C854   1.400       .  A
C853        N860   1.430       .  S
C854        C855   1.401       .  A
C854        H859   1.083       .  S
C855        C856   1.420       .  A
C856        N857   1.436       .  S
N857        O861   1.263       .  A
N857        O862   1.262   1_455  A
N860        O863   1.262       .  A
C865        C866   1.405       .  A
C865        C870   1.407       .  A
C865        H872   1.083   1_455  S
C866        C867   1.416       .  A
C867        C868   1.396       .  A
C867        N874   1.437       .  S
C868        C869   1.397       .  A
C868        H873   1.079       .  S
C869        C870   1.415       .  A
C870        N871   1.437   1_455  S
N871       O2195   1.263       .  A
N871       O2196   1.262       .  A
N874        O877   1.263       .  A
N874        O878   1.263       .  A
O875       N2191   1.263       .  A
O876       N2191   1.262       .  A
C879        C880   1.407       .  A
C879        C884   1.403       .  A
C879        H886   1.082       .  S
C880        C881   1.423       .  A
C881        C882   1.398       .  A
C881        N888   1.434       .  S
C882        C883   1.400       .  A
C882        H887   1.084       .  S
C883        C884   1.416       .  A
C884        N885   1.433       .  S
N885        O889   1.263       .  A
N885       O2210   1.261       .  A
N888        O891   1.262       .  A
N888        O892   1.263       .  A
O890       N2205   1.261       .  A
C893        C894   1.403       .  A
C893        C898   1.400       .  A
C893        H900   1.084       .  S
C894        C895   1.418       .  A
C895        C896   1.402       .  A
C895        N902   1.433       .  S
C896        C897   1.409       .  A
C896        H901   1.080       .  S
C897        C898   1.425       .  A
C898        N899   1.432       .  S
N899        O903   1.262       .  A
N899        O904   1.263       .  A
N902        O905   1.263       .  A
N902        O906   1.262       .  A
C907        C908   1.414       .  A
C907        C912   1.405       .  A
C907        H914   1.074       .  S
C908        C909   1.428       .  A
C909        C910   1.403       .  A
C909        N916   1.432       .  S
C910        C911   1.404       .  A
C910        H915   1.083       .  S
C911        C912   1.418       .  A
C912        N913   1.440       .  S
N913        O917   1.262       .  A
N913        O918   1.260       .  A
N916        O919   1.263       .  A
N916        O920   1.262       .  A
C921        C922   1.405       .  A
C921        C926   1.402       .  A
C922        C923   1.413       .  A
C923        C924   1.408       .  A
C923        N930   1.443       .  S
C924        C925   1.405       .  A
C924        H929   1.084       .  S
C925        C926   1.411       .  A
N927        O931   1.263       .  A
N927        O932   1.263       .  A
N930        O933   1.263       .  A
N930        O934   1.263       .  A
C935        C936   1.403   1_554  A
C935        C940   1.404       .  A
C935        H942   1.084       .  S
C936       C1267   1.418       .  A
C937       C1266   1.418       .  A
C937        C938   1.405       .  A
C937        N944   1.432       .  S
C938       C1269   1.405       .  A
C938        H943   1.083       .  S
C939       C1268   1.405       .  A
C939        C940   1.422   1_556  A
C940        N941   1.436       .  S
N941        O945   1.263       .  A
N941        O946   1.263       .  A
N944        O947   1.261       .  A
N944       O1278   1.263       .  A
O948       N1274   1.263       .  A
C949        C950   1.403       .  A
C949        C954   1.402       .  A
C949        H956   1.084   1_554  S
C950       C1281   1.420       .  A
C951       C1280   1.420       .  A
C951        C952   1.406       .  A
C951        N958   1.433       .  S
C952       C1283   1.408       .  A
C952        H957   1.081       .  S
C953       C1282   1.408       .  A
C953        C954   1.424       .  A
C954        N955   1.434   1_554  S
N955        O959   1.263   1_556  A
N955       O1290   1.262       .  A
N958       O1291   1.262       .  A
N958        O962   1.263       .  A
O960       N1285   1.262       .  A
O961       N1288   1.262       .  A
C963       C1294   1.407   1_554  A
C963        C968   1.398       .  A
C963        H970   1.084       .  S
C964       C1293   1.407       .  A
C964        C965   1.416       .  A
C965        C966   1.408       .  A
C965        N972   1.439       .  S
C966       C1297   1.408       .  A
C966        H971   1.084       .  S
C967       C1296   1.409       .  A
C967        C968   1.413   1_556  A
C968        N969   1.437       .  S
N969        O973   1.263       .  A
N969       O2294   1.262       .  A
N972        O975   1.263       .  A
N972       O1306   1.263       .  A
O974       N2289   1.262       .  A
O976       N1302   1.263       .  A
C977       C1308   1.401       .  A
C977        C982   1.400       .  A
C977        H984   1.084       .  S
C978       C1307   1.401   1_554  A
C978        C979   1.417       .  A
C979        C980   1.402       .  A
C979        N986   1.431       .  S
C980        C981   1.404       .  A
C980        H985   1.083       .  S
C981       C1312   1.421   1_554  A
C982       C1311   1.421       .  A
C982        N983   1.436       .  S
N983        O987   1.263       .  A
N983        O988   1.263       .  A
N986        O990   1.262       .  A
C991        C996   1.425       .  A
C991       C1311   1.490       .  S
C992        C993   1.400   1_554  A
C992        H997   1.083       .  S
C993        C994   1.400       .  A
C993       C1002   1.498   1_556  S
C994        H998   1.068       .  S
C995        C996   1.403       .  A
C995       C1020   1.505       .  S
C996        H999   1.082       .  S
C1000      C1001   1.421       .  A
C1000      C1294   1.491       .  S
C1001      C1002   1.398   1_556  A
C1001      H1006   1.083       .  S
C1002      C1003   1.401       .  A
C1003      H1007   1.069       .  S
C1004      C1005   1.403       .  A
C1004      C1011   1.506       .  S
C1005      H1008   1.081       .  S
C1009      C1010   1.433       .  A
C1009      C1014   1.438       .  A
C1009      C1283   1.507       .  S
C1010      C1011   1.405       .  A
C1010      H1015   1.082       .  S
C1011      C1012   1.388       .  A
C1012      C1013   1.394       .  A
C1012      H1016   1.057       .  S
C1013      C1014   1.404       .  A
C1013      C1022   1.514       .  S
C1014      H1017   1.080       .  S
C1018      C1019   1.431       .  A
C1018      C1023   1.435       .  A
C1018      C1269   1.499       .  S
C1019      C1020   1.403       .  A
C1019      H1024   1.083       .  S
C1020      C1021   1.389       .  A
C1021      C1022   1.395       .  A
C1021      H1025   1.058       .  S
C1022      C1023   1.405       .  A
C1023      H1026   1.081       .  S
C1027      C1028   1.420       .  A
C1027      C1032   1.424       .  A
C1027      C1252   1.475       .  S
C1028      C1029   1.399       .  A
C1028      H1033   1.083       .  S
C1029      C1030   1.399       .  A
C1029      C1038   1.502       .  S
C1030      C1031   1.395       .  A
C1030      H1034   1.060       .  S
C1031      C1032   1.404       .  A
C1031      C1056   1.505       .  S
C1032      H1035   1.083       .  S
C1036      C1037   1.433       .  A
C1036      C1041   1.439       .  A
C1036      C1238   1.522       .  S
C1037      C1038   1.404       .  A
C1037      H1042   1.079       .  S
C1038      C1039   1.390       .  A
C1039      C1040   1.387       .  A
C1039      H1043   1.056       .  S
C1040      C1041   1.401       .  A
C1040      C1047   1.504       .  S
C1041      H1044   1.078       .  S
C1045      C1046   1.432       .  A
C1045      C1050   1.426       .  A
C1045      C1227   1.506       .  S
C1046      C1047   1.401       .  A
C1046      H1051   1.079       .  S
C1047      C1048   1.398       .  A
C1048      C1049   1.393       .  A
C1048      H1052   1.064       .  S
C1049      C1050   1.403       .  A
C1049      C1058   1.495       .  S
C1050      H1053   1.082       .  S
C1054      C1055   1.428       .  A
C1054      C1059   1.421       .  A
C1054      C1210   1.497       .  S
C1055      C1056   1.402       .  A
C1055      H1060   1.081       .  S
C1056      C1057   1.403       .  A
C1057      C1058   1.400       .  A
C1057      H1061   1.067       .  S
C1058      C1059   1.399       .  A
C1059      H1062   1.083       .  S
C1063      C1064   1.420       .  A
C1063      C1068   1.424       .  A
C1063      C1196   1.482       .  S
C1064      C1065   1.399       .  A
C1064      H1069   1.083       .  S
C1065      C1066   1.399       .  A
C1065      C1074   1.497       .  S
C1066      C1067   1.399       .  A
C1066      H1070   1.064       .  S
C1067      C1068   1.402       .  A
C1067      C1083   1.502       .  S
C1068      H1071   1.083       .  S
C1072      C1073   1.423       .  A
C1072      C1077   1.427       .  A
C1072      C1185   1.486       .  S
C1073      C1074   1.400       .  A
C1073      H1078   1.083       .  S
C1074      C1075   1.396       .  A
C1075      C1076   1.400       .  A
C1075      H1079   1.061       .  S
C1076      C1077   1.399       .  A
C1076      C1092   1.504       .  S
C1077      H1080   1.082       .  S
C1081      C1082   1.422       .  A
C1081      C1086   1.424       .  A
C1081      C1171   1.473       .  S
C1082      C1083   1.400       .  A
C1082      H1087   1.083       .  S
C1083      C1084   1.395       .  A
C1084      C1085   1.400       .  A
C1084      H1088   1.060       .  S
C1085      C1086   1.403       .  A
C1085      C1094   1.507       .  S
C1086      H1089   1.083       .  S
C1090      C1091   1.429       .  A
C1090      C1095   1.430       .  A
C1090      C1154   1.488       .  S
C1091      C1092   1.402       .  A
C1091      H1096   1.083       .  S
C1092      C1093   1.391       .  A
C1093      C1094   1.392       .  A
C1093      H1097   1.055       .  S
C1094      C1095   1.403       .  A
C1095      H1098   1.082       .  S
O1099      C1110   1.288       .  A
O1100      C1111   1.297       .  A
O1101      C1112   1.291       .  A
O1102      C1113   1.293       .  A
O1102     Zr1107   2.442       .  S
O1103      C1113   1.294       .  A
O1104      C1112   1.293       .  A
O1105      C1111   1.294       .  A
O1105     Zr1107   2.445       .  S
O1106      C1110   1.295       .  A
O1106     Zr2427   2.449       .  S
Zr1107     O2426   2.449   1_455  S
O1108     Zr1134   2.355       .  S
O1108     Zr1137   2.348       .  S
O1109     Zr2125   2.347   1_456  S
O1109     Zr1136   2.345       .  S
C1110      C1308   1.484       .  S
C1111      C1266   1.494       .  S
C1112      C1182   1.483       .  S
C1113      C1157   1.484       .  S
H1114      O1115   0.965       .  S
O1115     Zr1136   2.330       .  S
H1116      O1117   0.965       .  S
O1117     Zr2455   2.331   1_455  S
O1117     Zr1137   2.330       .  S
O1118      C1141   1.297       .  A
O1118     Zr1134   2.455       .  S
O1119      C1142   1.292       .  A
O1119     Zr1135   2.435       .  S
O1120      C1143   1.291       .  A
O1120     Zr1136   2.440       .  S
O1121      C1144   1.289       .  A
O1121     Zr1137   2.431       .  S
O1122      C1145   1.292       .  A
O1122     Zr2457   2.438       .  S
O1123      C1146   1.291       .  A
O1123     Zr2456   2.436       .  S
O1124      C1147   1.293       .  A
O1125      C1148   1.291       .  A
O1125     Zr1138   2.437       .  S
O1126      C1147   1.292       .  A
O1126     Zr1136   2.433       .  S
O1127      C1148   1.292       .  A
O1127     Zr1137   2.438       .  S
O1128      C1143   1.294       .  A
O1129      C1146   1.292       .  A
O1130      C1145   1.293       .  A
O1130     Zr1135   2.439       .  S
O1131      C1144   1.295       .  A
O1131     Zr1134   2.446       .  S
O1132      C1141   1.290       .  A
O1132     Zr1138   2.437       .  S
O1133      C1142   1.293       .  A
O1133     Zr2458   2.439       .  S
Zr1134     O1152   2.331       .  S
Zr1135     O2099   2.347       .  S
Zr1135     O2437   2.331       .  S
Zr1135     O2459   2.344       .  S
Zr1135     O2140   2.329       .  S
Zr1136     O2443   2.436   1_455  S
Zr1136     O1140   2.347       .  S
Zr1136     O1150   2.335       .  S
Zr1137     O2442   2.438   1_455  S
Zr1137     O1139   2.350       .  S
Zr1137     O1152   2.331       .  S
Zr1138     O2453   2.439   1_455  S
Zr1138     O1139   2.348       .  S
Zr1138     O1152   2.333       .  S
O1139     Zr2455   2.344   1_455  S
C1141      C1280   1.498       .  S
C1142      C1297   1.485       .  S
C1143      C1241   1.499       .  S
C1144      C1224   1.494       .  S
C1145      C1213   1.486       .  S
C1146      C1255   1.466       .  S
C1147      C1199   1.476       .  S
C1148      C1168   1.466       .  S
H1149      O1150   0.965       .  S
O1150     Zr2125   2.329   1_456  S
H1151      O1152   0.965       .  S
C1153      C1154   1.403       .  A
C1153      C1158   1.404       .  A
C1153      H1160   1.083       .  S
C1154      C1155   1.420       .  A
C1155      C1156   1.402       .  A
C1155      N1162   1.436       .  S
C1156      C1157   1.401       .  A
C1156      H1161   1.084       .  S
C1157      C1158   1.416       .  A
C1158      N1159   1.434   1_455  S
N1159      O1163   1.263       .  A
N1159      O1164   1.262       .  A
N1162      O1165   1.263       .  A
N1162      O1166   1.263       .  A
C1167      C1168   1.405       .  A
C1167      C1172   1.409       .  A
C1167      H1174   1.084       .  S
C1168      C1169   1.412       .  A
C1169      C1170   1.401       .  A
C1169      N2496   1.445   1_455  S
C1170      C1171   1.405       .  A
C1170      H2495   1.084       .  S
C1171      C1172   1.415       .  A
C1172      N1173   1.446       .  S
N1173      O1177   1.263       .  A
N1173      O1178   1.262       .  A
H1175      C2490   1.084       .  S
N1176      C2489   1.445       .  S
N1176      O1179   1.262       .  A
N1176      O1180   1.263       .  A
C1181      C1182   1.402       .  A
C1181      C1186   1.401       .  A
C1181      H1188   1.084       .  S
C1182      C1183   1.414       .  A
C1183      C1184   1.400       .  A
C1183      N1190   1.430       .  S
C1184      C1185   1.400       .  A
C1184      H1189   1.083       .  S
C1185      C1186   1.420       .  A
C1186      N1187   1.436       .  S
N1187      O1191   1.263       .  A
N1187      O1192   1.262   1_455  A
N1190      O1193   1.262       .  A
C1195      C1196   1.405       .  A
C1195      C1200   1.407       .  A
C1195      H1202   1.083   1_455  S
C1196      C1197   1.416       .  A
C1197      C1198   1.396       .  A
C1197      N1204   1.437       .  S
C1198      C1199   1.397       .  A
C1198      H1203   1.079       .  S
C1199      C1200   1.415       .  A
C1200      N1201   1.437   1_455  S
N1201      O2525   1.263       .  A
N1201      O2526   1.262       .  A
N1204      O1207   1.263       .  A
N1204      O1208   1.263       .  A
O1205      N2521   1.263       .  A
O1206      N2521   1.262       .  A
C1209      C1210   1.407       .  A
C1209      C1214   1.403       .  A
C1209      H1216   1.082       .  S
C1210      C1211   1.423       .  A
C1211      C1212   1.398       .  A
C1211      N1218   1.434       .  S
C1212      C1213   1.400       .  A
C1212      H1217   1.084       .  S
C1213      C1214   1.416       .  A
C1214      N1215   1.433       .  S
N1215      O1219   1.263       .  A
N1215      O2540   1.261       .  A
N1218      O1221   1.262       .  A
N1218      O1222   1.263       .  A
O1220      N2535   1.261       .  A
C1223      C1224   1.403       .  A
C1223      C1228   1.400       .  A
C1223      H1230   1.084       .  S
C1224      C1225   1.418       .  A
C1225      C1226   1.402       .  A
C1225      N1232   1.433       .  S
C1226      C1227   1.409       .  A
C1226      H1231   1.080       .  S
C1227      C1228   1.425       .  A
C1228      N1229   1.432       .  S
N1229      O1233   1.262       .  A
N1229      O1234   1.263       .  A
N1232      O1235   1.263       .  A
N1232      O1236   1.262       .  A
C1237      C1238   1.414       .  A
C1237      C1242   1.405       .  A
C1237      H1244   1.074       .  S
C1238      C1239   1.429       .  A
C1239      C1240   1.403       .  A
C1239      N1246   1.432       .  S
C1240      C1241   1.404       .  A
C1240      H1245   1.083       .  S
C1241      C1242   1.418       .  A
C1242      N1243   1.440       .  S
N1243      O1247   1.262       .  A
N1243      O1248   1.260       .  A
N1246      O1249   1.263       .  A
N1246      O1250   1.262       .  A
C1251      C1252   1.405       .  A
C1251      C1256   1.402       .  A
C1252      C1253   1.413       .  A
C1253      C1254   1.408       .  A
C1253      N1260   1.443       .  S
C1254      C1255   1.405       .  A
C1254      H1259   1.084       .  S
C1255      C1256   1.411       .  A
N1257      O1261   1.263       .  A
N1257      O1262   1.263       .  A
N1260      O1263   1.263       .  A
N1260      O1264   1.263       .  A
C1265      C1266   1.403       .  A
C1265      C1270   1.404       .  A
C1265      H1272   1.084       .  S
C1267      C1268   1.405       .  A
C1267      N1274   1.432       .  S
C1268      H1273   1.083       .  S
C1269      C1270   1.423       .  A
C1270      N1271   1.436       .  S
N1271      O1275   1.263       .  A
N1271      O1276   1.263       .  A
N1274      O1277   1.261       .  A
C1279      C1280   1.403       .  A
C1279      C1284   1.403       .  A
C1279      H1286   1.084       .  S
C1281      C1282   1.406       .  A
C1281      N1288   1.433       .  S
C1282      H1287   1.081       .  S
C1283      C1284   1.424       .  A
C1284      N1285   1.434       .  S
N1285      O1289   1.263       .  A
N1288      O1292   1.263       .  A
C1293      C1298   1.398       .  A
C1293      H1300   1.084       .  S
C1294      C1295   1.416       .  A
C1295      C1296   1.408       .  A
C1295      N1302   1.439       .  S
C1296      H1301   1.084       .  S
C1297      C1298   1.413       .  A
C1298      N1299   1.437       .  S
N1299      O1303   1.263       .  A
N1299      O2624   1.262       .  A
N1302      O1305   1.263       .  A
O1304      N2619   1.262       .  A
C1307      C1312   1.400       .  A
C1307      H1314   1.084       .  S
C1308      C1309   1.417       .  A
C1309      C1310   1.402       .  A
C1309      N1316   1.431       .  S
C1310      C1311   1.404       .  A
C1310      H1315   1.083       .  S
C1312      N1313   1.436       .  S
N1313      O1317   1.263       .  A
N1313      O1318   1.263       .  A
N1316      O1320   1.262       .  A
C1321      C1652   1.421       .  A
C1321      C1326   1.425   1_554  A
C1321      C1641   1.489       .  S
C1322      C1651   1.421       .  A
C1322      C1323   1.400       .  A
C1322      H1327   1.083       .  S
C1323      C1324   1.400       .  A
C1323      C1332   1.498       .  S
C1324      C1655   1.405       .  A
C1324      H1328   1.068       .  S
C1325      C1654   1.405       .  A
C1325      C1326   1.403       .  A
C1325      C1350   1.505       .  S
C1326      H1329   1.082   1_556  S
C1330      C1331   1.421       .  A
C1330      C1665   1.425       .  A
C1330      C1624   1.491       .  S
C1331      C1332   1.398       .  A
C1331      H1336   1.083       .  S
C1332      C1333   1.401       .  A
C1333      C1664   1.406       .  A
C1333      H1337   1.069       .  S
C1334      C1663   1.406       .  A
C1334      C1335   1.403       .  A
C1334      C1341   1.506       .  S
C1335      C1660   1.425   1_554  A
C1335      H1338   1.081       .  S
C1339      C1340   1.433       .  A
C1339      C1344   1.438       .  A
C1339      C1613   1.506       .  S
C1340      C1341   1.404       .  A
C1340      H1345   1.082       .  S
C1341      C1342   1.388   1_554  A
C1342      C1343   1.394   1_556  A
C1342      H1346   1.057       .  S
C1343      C1344   1.404       .  A
C1343      C1352   1.514       .  S
C1344      H1347   1.080       .  S
C1348      C1349   1.431       .  A
C1348      C1353   1.435       .  A
C1348      C1599   1.499       .  S
C1349      C1350   1.403       .  A
C1349      H1354   1.083       .  S
C1350      C1351   1.389   1_556  A
C1351      C1352   1.395       .  A
C1351      H1355   1.058       .  S
C1352      C1353   1.405   1_554  A
C1353      H1356   1.081       .  S
C1357      C1358   1.420       .  A
C1357      C1362   1.424       .  A
C1357      C1582   1.475       .  S
C1358      C1359   1.399       .  A
C1358      H1363   1.083       .  S
C1359      C1360   1.399       .  A
C1359      C1368   1.502       .  S
C1360      C1361   1.395       .  A
C1360      H1364   1.060       .  S
C1361      C1362   1.405       .  A
C1361      C1386   1.505       .  S
C1362      H1365   1.083       .  S
C1366      C1367   1.433       .  A
C1366      C1371   1.439       .  A
C1366      C1568   1.522       .  S
C1367      C1368   1.404       .  A
C1367      H1372   1.079       .  S
C1368      C1369   1.390       .  A
C1369      C1370   1.387       .  A
C1369      H1373   1.056       .  S
C1370      C1371   1.401       .  A
C1370      C1377   1.504       .  S
C1371      H1374   1.078       .  S
C1375      C1376   1.432       .  A
C1375      C1380   1.426       .  A
C1375      C1557   1.506       .  S
C1376      C1377   1.401       .  A
C1376      H1381   1.079       .  S
C1377      C1378   1.398       .  A
C1378      C1379   1.393       .  A
C1378      H1382   1.064       .  S
C1379      C1380   1.403       .  A
C1379      C1388   1.495       .  S
C1380      H1383   1.082       .  S
C1384      C1385   1.428       .  A
C1384      C1389   1.421       .  A
C1384      C1540   1.497       .  S
C1385      C1386   1.402       .  A
C1385      H1390   1.081       .  S
C1386      C1387   1.403       .  A
C1387      C1388   1.400       .  A
C1387      H1391   1.067       .  S
C1388      C1389   1.399       .  A
C1389      H1392   1.083       .  S
C1393      C1394   1.420       .  A
C1393      C1398   1.424       .  A
C1393      C1526   1.481       .  S
C1394      C1395   1.399       .  A
C1394      H1399   1.083       .  S
C1395      C1396   1.399       .  A
C1395      C1404   1.497       .  S
C1396      C1397   1.399       .  A
C1396      H1400   1.064       .  S
C1397      C1398   1.402       .  A
C1397      C1413   1.502       .  S
C1398      H1401   1.083       .  S
C1402      C1403   1.423       .  A
C1402      C1407   1.427       .  A
C1402      C1515   1.486       .  S
C1403      C1404   1.400       .  A
C1403      H1408   1.083       .  S
C1404      C1405   1.396       .  A
C1405      C1406   1.400       .  A
C1405      H1409   1.061       .  S
C1406      C1407   1.399       .  A
C1406      C1422   1.504       .  S
C1407      H1410   1.082       .  S
C1411      C1412   1.422       .  A
C1411      C1416   1.424       .  A
C1411      C1501   1.473       .  S
C1412      C1413   1.400       .  A
C1412      H1417   1.083       .  S
C1413      C1414   1.395       .  A
C1414      C1415   1.400       .  A
C1414      H1418   1.060       .  S
C1415      C1416   1.403       .  A
C1415      C1424   1.507       .  S
C1416      H1419   1.083       .  S
C1420      C1421   1.429       .  A
C1420      C1425   1.430       .  A
C1420      C1484   1.488       .  S
C1421      C1422   1.402       .  A
C1421      H1426   1.083       .  S
C1422      C1423   1.391       .  A
C1423      C1424   1.392       .  A
C1423      H1427   1.055       .  S
C1424      C1425   1.403       .  A
C1425      H1428   1.082       .  S
O1429      C1440   1.288       .  A
O1429     Zr2125   2.423       .  S
O1430      C1441   1.297       .  A
O1430     Zr2124   2.455       .  S
O1431      C1442   1.291       .  A
O1431     Zr1767   2.429       .  S
O1432      C1443   1.293       .  A
O1432     Zr1437   2.441   1_554  S
O1433      C1443   1.293       .  A
O1433     Zr2127   2.442       .  S
O1434      C1442   1.293       .  A
O1434     Zr2126   2.443       .  S
O1435      C1441   1.294       .  A
O1435     Zr1437   2.445       .  S
O1436      C1440   1.295   1_556  A
Zr1437     O1761   2.429       .  S
Zr1437     O2098   2.351   1_556  S
Zr1437     O2429   2.345       .  S
Zr1437     O2107   2.330   1_556  S
Zr1437     O2435   2.338       .  S
O1438     Zr2097   2.351   1_544  S
O1438     Zr1464   2.354   1_554  S
O1438     Zr1467   2.348       .  S
O1439     Zr2427   2.345   1_545  S
O1439     Zr1466   2.345       .  S
C1440      C1638   1.484       .  S
C1441      C1596   1.494       .  S
C1442      C1512   1.483       .  S
C1443      C1487   1.484       .  S
H1444      O1445   0.965       .  S
O1445     Zr2427   2.338   1_545  S
O1445     Zr1794   2.337       .  S
O1445     Zr1466   2.331       .  S
H1446      O1447   0.965   1_565  S
O1447     Zr2097   2.330   1_544  S
O1447     Zr1467   2.330       .  S
O1448      C1471   1.297       .  A
O1448     Zr1464   2.455   1_554  S
O1449      C1472   1.292   1_554  A
O1449     Zr1465   2.434       .  S
O1450      C1473   1.291       .  A
O1450     Zr1466   2.440       .  S
O1451      C1474   1.289       .  A
O1451     Zr1467   2.431       .  S
O1452      C1475   1.292       .  A
O1453      C1476   1.291       .  A
O1454      C1477   1.293       .  A
O1454     Zr1798   2.445       .  S
O1455      C1478   1.291       .  A
O1455     Zr1468   2.437       .  S
O1456      C1477   1.292       .  A
O1456     Zr1466   2.433       .  S
O1457      C1478   1.292       .  A
O1457     Zr1467   2.438       .  S
O1458      C1473   1.294       .  A
O1458     Zr1794   2.443       .  S
O1459      C1476   1.292       .  A
O1459     Zr1795   2.439       .  S
O1460      C1475   1.293       .  A
O1460     Zr1465   2.439       .  S
O1461      C1474   1.295       .  A
O1461     Zr1464   2.446   1_554  S
O1462      C1471   1.290       .  A
O1462     Zr1468   2.437       .  S
O1463      C1472   1.293       .  A
Zr1464     O2090   2.456   1_545  S
Zr1464     O1788   2.444       .  S
Zr1464     O1775   2.337       .  S
Zr1464     O1800   2.351       .  S
Zr1464     O1482   2.331   1_556  S
Zr1465     O2089   2.424   1_545  S
Zr1465     O1789   2.439   1_554  S
Zr1466     O2094   2.443   1_545  S
Zr1466     O1470   2.348       .  S
Zr1466     O1480   2.335       .  S
Zr1467     O2093   2.442   1_545  S
Zr1467     O1469   2.350       .  S
Zr1467     O1482   2.331       .  S
Zr1468     O1784   2.445   1_554  S
Zr1468     O1469   2.348       .  S
Zr1468     O1800   2.349   1_554  S
Zr1468     O1482   2.333       .  S
Zr1468     O1810   2.329   1_554  S
O1470     Zr1794   2.351       .  S
O1470     Zr1798   2.349       .  S
C1471      C1610   1.498       .  S
C1472      C1627   1.485       .  S
C1473      C1571   1.499       .  S
C1474      C1554   1.494       .  S
C1475      C1543   1.486       .  S
C1476      C1585   1.466       .  S
C1477      C1529   1.476       .  S
C1478      C1498   1.467       .  S
H1479      O1480   0.965       .  S
O1480     Zr1798   2.329       .  S
H1481      O1482   0.965       .  S
C1483      C1484   1.403       .  A
C1483      C1488   1.404       .  A
C1483      H1490   1.083       .  S
C1484      C1485   1.420       .  A
C1485      C1486   1.402       .  A
C1485      N1492   1.436       .  S
C1486      C1487   1.401       .  A
C1486      H1491   1.084       .  S
C1487      C1488   1.416       .  A
C1488      N1489   1.434       .  S
N1489      O1493   1.263       .  A
N1489      O1494   1.262       .  A
N1492      O1495   1.263       .  A
N1492      O1496   1.263       .  A
C1497      C1498   1.405       .  A
C1497      C1502   1.409       .  A
C1497      H1504   1.084       .  S
C1498      C1499   1.412       .  A
C1499      C1500   1.401       .  A
C1500      C1501   1.405       .  A
C1501      C1502   1.415       .  A
C1502      N1503   1.446       .  S
N1503      O1507   1.263       .  A
N1503      O1508   1.262       .  A
N1506      O1509   1.262       .  A
N1506      O1510   1.263       .  A
C1511      C1512   1.402       .  A
C1511      C1516   1.401       .  A
C1511      H1518   1.084       .  S
C1512      C1513   1.414       .  A
C1513      C1514   1.400       .  A
C1513      N1520   1.430       .  S
C1514      C1515   1.400       .  A
C1514      H1519   1.083       .  S
C1515      C1516   1.420       .  A
C1516      N1517   1.436       .  S
N1517      O1521   1.263       .  A
N1517      O1522   1.262       .  A
N1520      O1523   1.262       .  A
N1520      O2184   1.262       .  A
O1524      N2180   1.262       .  A
C1525      C1526   1.405       .  A
C1525      C1530   1.407       .  A
C1525      H1532   1.083       .  S
C1526      C1527   1.416       .  A
C1527      C1528   1.396       .  A
C1527      N1534   1.437       .  S
C1528      C1529   1.397       .  A
C1528      H1533   1.079       .  S
C1529      C1530   1.415       .  A
C1530      N1531   1.437       .  S
N1534      O1537   1.263       .  A
N1534      O1538   1.263       .  A
C1539      C1540   1.407       .  A
C1539      C1544   1.403       .  A
C1539      H1546   1.082       .  S
C1540      C1541   1.423       .  A
C1541      C1542   1.398       .  A
C1541      N1548   1.434       .  S
C1542      C1543   1.400       .  A
C1542      H1547   1.084       .  S
C1543      C1544   1.416       .  A
C1544      N1545   1.433       .  S
N1545      O1549   1.263       .  A
N1548      O1551   1.262       .  A
N1548      O1552   1.263       .  A
C1553      C1554   1.403       .  A
C1553      C1558   1.400       .  A
C1553      H1560   1.084       .  S
C1554      C1555   1.418       .  A
C1555      C1556   1.402       .  A
C1555      N1562   1.433       .  S
C1556      C1557   1.409       .  A
C1556      H1561   1.080       .  S
C1557      C1558   1.425       .  A
C1558      N1559   1.432       .  S
N1559      O1563   1.262       .  A
N1559      O1564   1.263       .  A
N1562      O1565   1.263       .  A
N1562      O1566   1.262       .  A
C1567      C1568   1.414       .  A
C1567      C1572   1.405       .  A
C1567      H1574   1.074       .  S
C1568      C1569   1.429       .  A
C1569      C1570   1.403       .  A
C1569      N1576   1.432       .  S
C1570      C1571   1.404       .  A
C1570      H1575   1.083       .  S
C1571      C1572   1.418       .  A
C1572      N1573   1.440       .  S
N1573      O1577   1.262       .  A
N1573      O1578   1.260       .  A
N1576      O1579   1.263       .  A
N1576      O1580   1.262       .  A
C1581      C1582   1.405       .  A
C1581      C1586   1.402       .  A
C1581      H2248   1.084       .  S
C1582      C1583   1.413       .  A
C1583      C1584   1.408       .  A
C1583      N1590   1.443       .  S
C1584      C1585   1.405       .  A
C1584      H1589   1.084       .  S
C1585      C1586   1.411       .  A
C1586      N2247   1.445   1_545  S
N1587      C2246   1.445       .  S
N1587      O1591   1.263       .  A
N1587      O1592   1.263       .  A
H1588      C2241   1.084       .  S
N1590      O1593   1.263       .  A
N1590      O1594   1.263       .  A
C1595      C1596   1.403   1_554  A
C1595      C1600   1.404       .  A
C1595      H1602   1.084       .  S
C1596      C1927   1.419       .  A
C1597      C1926   1.418       .  A
C1597      C1598   1.405       .  A
C1597      N1604   1.432       .  S
C1598      C1929   1.405       .  A
C1598      H1603   1.083       .  S
C1599      C1928   1.405       .  A
C1599      C1600   1.423   1_556  A
C1600      N1601   1.436       .  S
N1601      O1605   1.263       .  A
N1601      O1606   1.263       .  A
N1604      O1607   1.261       .  A
N1604      O1938   1.263       .  A
O1608      N1934   1.263       .  A
C1609      C1610   1.403       .  A
C1609      C1614   1.403       .  A
C1609      H1616   1.084   1_554  S
C1610      C1941   1.420       .  A
C1611      C1940   1.420       .  A
C1611      C1612   1.406       .  A
C1611      N1618   1.433       .  S
C1612      C1943   1.408       .  A
C1612      H1617   1.081       .  S
C1613      C1942   1.408       .  A
C1613      C1614   1.424       .  A
C1614      N1615   1.434   1_554  S
N1615      O1619   1.263   1_556  A
N1615      O1950   1.262       .  A
N1618      O1951   1.262       .  A
N1618      O1622   1.263       .  A
O1620      N1945   1.262       .  A
O1621      N1948   1.262       .  A
C1623      C1954   1.407   1_554  A
C1623      C1628   1.398       .  A
C1623      H1630   1.084       .  S
C1624      C1953   1.407       .  A
C1624      C1625   1.416       .  A
C1625      C1626   1.408       .  A
C1625      N1632   1.439       .  S
C1626      C1957   1.408       .  A
C1626      H1631   1.084       .  S
C1627      C1956   1.409       .  A
C1627      C1628   1.413   1_556  A
C1628      N1629   1.437       .  S
N1629      O1633   1.263       .  A
N1632      O1635   1.263       .  A
N1632      O1966   1.263       .  A
O1636      N1962   1.263       .  A
C1637      C1968   1.401       .  A
C1637      C1642   1.400       .  A
C1637      H1644   1.084       .  S
C1638      C1967   1.401   1_554  A
C1638      C1639   1.417       .  A
C1639      C1640   1.402       .  A
C1639      N1646   1.431       .  S
C1640      C1641   1.404       .  A
C1640      H1645   1.083       .  S
C1641      C1972   1.421   1_554  A
C1642      C1971   1.421       .  A
C1642      N1643   1.436       .  S
N1643      O1647   1.263       .  A
N1643      O1648   1.263       .  A
N1646      O2309   1.262       .  A
N1646      O1650   1.262       .  A
O1649      N2306   1.262       .  A
C1651      C1656   1.425       .  A
C1651      C1971   1.490       .  S
C1652      C1653   1.400   1_554  A
C1652      H1657   1.083       .  S
C1653      C1654   1.400       .  A
C1653      C1662   1.498   1_556  S
C1654      H1658   1.068       .  S
C1655      C1656   1.403       .  A
C1655      C1680   1.505       .  S
C1656      H1659   1.082       .  S
C1660      C1661   1.421       .  A
C1660      C1954   1.491       .  S
C1661      C1662   1.398   1_556  A
C1661      H1666   1.083       .  S
C1662      C1663   1.401       .  A
C1663      H1667   1.069       .  S
C1664      C1665   1.403       .  A
C1664      C1671   1.506       .  S
C1665      H1668   1.081       .  S
C1669      C1670   1.433       .  A
C1669      C1674   1.438       .  A
C1669      C1943   1.507       .  S
C1670      C1671   1.405       .  A
C1670      H1675   1.082       .  S
C1671      C1672   1.388       .  A
C1672      C1673   1.394       .  A
C1672      H1676   1.057       .  S
C1673      C1674   1.404       .  A
C1673      C1682   1.514       .  S
C1674      H1677   1.080       .  S
C1678      C1679   1.431       .  A
C1678      C1683   1.435       .  A
C1678      C1929   1.499       .  S
C1679      C1680   1.403       .  A
C1679      H1684   1.083       .  S
C1680      C1681   1.389       .  A
C1681      C1682   1.395       .  A
C1681      H1685   1.058       .  S
C1682      C1683   1.405       .  A
C1683      H1686   1.081       .  S
C1687      C1688   1.420       .  A
C1687      C1692   1.424       .  A
C1687      C1912   1.475       .  S
C1688      C1689   1.399       .  A
C1688      H1693   1.083       .  S
C1689      C1690   1.400       .  A
C1689      C1698   1.502       .  S
C1690      C1691   1.396       .  A
C1690      H1694   1.060       .  S
C1691      C1692   1.404       .  A
C1691      C1716   1.505       .  S
C1692      H1695   1.083       .  S
C1696      C1697   1.433       .  A
C1696      C1701   1.439       .  A
C1696      C1898   1.522       .  S
C1697      C1698   1.404       .  A
C1697      H1702   1.079       .  S
C1698      C1699   1.390       .  A
C1699      C1700   1.387       .  A
C1699      H1703   1.056       .  S
C1700      C1701   1.400       .  A
C1700      C1707   1.504       .  S
C1701      H1704   1.078       .  S
C1705      C1706   1.432       .  A
C1705      C1710   1.426       .  A
C1705      C1887   1.507       .  S
C1706      C1707   1.401       .  A
C1706      H1711   1.079       .  S
C1707      C1708   1.397       .  A
C1708      C1709   1.393       .  A
C1708      H1712   1.064       .  S
C1709      C1710   1.403       .  A
C1709      C1718   1.495       .  S
C1710      H1713   1.082       .  S
C1714      C1715   1.428       .  A
C1714      C1719   1.421       .  A
C1714      C1870   1.498       .  S
C1715      C1716   1.402       .  A
C1715      H1720   1.081       .  S
C1716      C1717   1.402       .  A
C1717      C1718   1.400       .  A
C1717      H1721   1.067       .  S
C1718      C1719   1.399       .  A
C1719      H1722   1.083       .  S
C1723      C1724   1.420       .  A
C1723      C1728   1.424       .  A
C1723      C1856   1.482       .  S
C1724      C1725   1.399       .  A
C1724      H1729   1.083       .  S
C1725      C1726   1.399       .  A
C1725      C1734   1.498       .  S
C1726      C1727   1.399       .  A
C1726      H1730   1.065       .  S
C1727      C1728   1.402       .  A
C1727      C1743   1.502       .  S
C1728      H1731   1.083       .  S
C1732      C1733   1.423       .  A
C1732      C1737   1.427       .  A
C1732      C1845   1.486       .  S
C1733      C1734   1.400       .  A
C1733      H1738   1.083       .  S
C1734      C1735   1.396       .  A
C1735      C1736   1.400       .  A
C1735      H1739   1.062       .  S
C1736      C1737   1.399       .  A
C1736      C1752   1.504       .  S
C1737      H1740   1.082       .  S
C1741      C1742   1.422       .  A
C1741      C1746   1.423       .  A
C1741      C1831   1.473       .  S
C1742      C1743   1.400       .  A
C1742      H1747   1.083       .  S
C1743      C1744   1.395       .  A
C1744      C1745   1.400       .  A
C1744      H1748   1.060       .  S
C1745      C1746   1.403       .  A
C1745      C1754   1.507       .  S
C1746      H1749   1.083       .  S
C1750      C1751   1.429       .  A
C1750      C1755   1.430       .  A
C1750      C1814   1.488       .  S
C1751      C1752   1.402       .  A
C1751      H1756   1.083       .  S
C1752      C1753   1.391       .  A
C1753      C1754   1.392       .  A
C1753      H1757   1.055       .  S
C1754      C1755   1.403       .  A
C1755      H1758   1.082       .  S
O1759      C1770   1.288       .  A
O1759     Zr2455   2.424       .  S
O1760      C1771   1.297       .  A
O1760     Zr2454   2.455       .  S
O1761      C1772   1.291       .  A
O1762      C1773   1.293       .  A
O1762     Zr1767   2.442       .  S
O1763      C1773   1.294       .  A
O1763     Zr2457   2.442       .  S
O1764      C1772   1.293       .  A
O1764     Zr2456   2.443       .  S
O1765      C1771   1.294       .  A
O1765     Zr1767   2.445       .  S
O1766      C1770   1.295       .  A
Zr1767     O2428   2.351       .  S
Zr1767     O2099   2.345       .  S
Zr1767     O2437   2.330       .  S
Zr1767     O2105   2.338       .  S
O1768     Zr2427   2.351   1_545  S
O1768     Zr1794   2.354       .  S
O1768     Zr1797   2.348       .  S
O1769     Zr2097   2.345   1_545  S
O1769     Zr1796   2.345       .  S
C1770      C1968   1.484       .  S
C1771      C1926   1.494       .  S
C1772      C1842   1.483       .  S
C1773      C1817   1.484       .  S
H1774      O1775   0.965       .  S
O1775     Zr2097   2.338   1_545  S
O1775     Zr1796   2.331       .  S
H1776      O1777   0.965   1_565  S
O1777     Zr2427   2.330   1_545  S
O1777     Zr1797   2.330       .  S
O1778      C1801   1.297       .  A
O1778     Zr1794   2.456       .  S
O1779      C1802   1.292       .  A
O1779     Zr1795   2.435       .  S
O1780      C1803   1.291       .  A
O1780     Zr1796   2.439       .  S
O1781      C1804   1.289       .  A
O1781     Zr1797   2.431       .  S
O1782      C1805   1.292       .  A
O1783      C1806   1.291       .  A
O1784      C1807   1.293       .  A
O1785      C1808   1.291       .  A
O1785     Zr1798   2.437       .  S
O1786      C1807   1.292       .  A
O1786     Zr1796   2.434       .  S
O1787      C1808   1.292       .  A
O1787     Zr1797   2.438       .  S
O1788      C1803   1.294       .  A
O1789      C1806   1.292       .  A
O1790      C1805   1.293       .  A
O1790     Zr1795   2.440       .  S
O1791      C1804   1.295       .  A
O1791     Zr1794   2.446       .  S
O1792      C1801   1.290       .  A
O1792     Zr1798   2.437       .  S
O1793      C1802   1.293       .  A
Zr1794     O2420   2.455   1_545  S
Zr1794     O1812   2.331       .  S
Zr1795     O2419   2.424   1_545  S
Zr1796     O2424   2.443   1_545  S
Zr1796     O1800   2.348       .  S
Zr1796     O1810   2.335       .  S
Zr1797     O2423   2.442   1_545  S
Zr1797     O1799   2.350       .  S
Zr1797     O1812   2.331       .  S
Zr1798     O1799   2.348       .  S
Zr1798     O1812   2.333       .  S
C1801      C1940   1.498       .  S
C1802      C1957   1.485       .  S
C1803      C1901   1.499       .  S
C1804      C1884   1.494       .  S
C1805      C1873   1.486       .  S
C1806      C1915   1.466       .  S
C1807      C1859   1.476       .  S
C1808      C1828   1.466       .  S
H1809      O1810   0.965       .  S
H1811      O1812   0.965       .  S
C1813      C1814   1.403       .  A
C1813      C1818   1.404       .  A
C1813      H1820   1.083       .  S
C1814      C1815   1.420       .  A
C1815      C1816   1.402       .  A
C1815      N1822   1.436       .  S
C1816      C1817   1.401       .  A
C1816      H1821   1.084       .  S
C1817      C1818   1.416       .  A
C1818      N1819   1.434       .  S
N1819      O1823   1.263       .  A
N1819      O1824   1.262       .  A
N1822      O1825   1.263       .  A
N1822      O1826   1.263       .  A
C1827      C1828   1.405       .  A
C1827      C1832   1.409       .  A
C1827      H1834   1.084       .  S
C1828      C1829   1.412       .  A
C1829      C1830   1.401       .  A
C1830      C1831   1.405       .  A
C1831      C1832   1.415       .  A
C1832      N1833   1.446       .  S
N1833      O1837   1.263       .  A
N1833      O1838   1.262       .  A
N1836      O1839   1.262       .  A
N1836      O1840   1.263       .  A
C1841      C1842   1.402       .  A
C1841      C1846   1.401       .  A
C1841      H1848   1.084       .  S
C1842      C1843   1.414       .  A
C1843      C1844   1.399       .  A
C1843      N1850   1.430       .  S
C1844      C1845   1.401       .  A
C1844      H1849   1.083       .  S
C1845      C1846   1.420       .  A
C1846      N1847   1.436       .  S
N1847      O1851   1.263       .  A
N1847      O1852   1.262       .  A
N1850      O1853   1.262       .  A
N1850      O2514   1.262       .  A
O1854      N2510   1.262       .  A
C1855      C1856   1.405       .  A
C1855      C1860   1.407       .  A
C1855      H1862   1.083       .  S
C1856      C1857   1.416       .  A
C1857      C1858   1.396       .  A
C1857      N1864   1.437       .  S
C1858      C1859   1.397       .  A
C1858      H1863   1.079       .  S
C1859      C1860   1.415       .  A
C1860      N1861   1.437       .  S
N1864      O1867   1.263       .  A
N1864      O1868   1.263       .  A
C1869      C1870   1.407       .  A
C1869      C1874   1.403       .  A
C1869      H1876   1.082       .  S
C1870      C1871   1.423       .  A
C1871      C1872   1.398       .  A
C1871      N1878   1.434       .  S
C1872      C1873   1.400       .  A
C1872      H1877   1.084       .  S
C1873      C1874   1.416       .  A
C1874      N1875   1.433       .  S
N1875      O1879   1.263       .  A
N1878      O1881   1.262       .  A
N1878      O1882   1.263       .  A
C1883      C1884   1.403       .  A
C1883      C1888   1.400       .  A
C1883      H1890   1.084       .  S
C1884      C1885   1.418       .  A
C1885      C1886   1.402       .  A
C1885      N1892   1.433       .  S
C1886      C1887   1.409       .  A
C1886      H1891   1.080       .  S
C1887      C1888   1.425       .  A
C1888      N1889   1.432       .  S
N1889      O1893   1.262       .  A
N1889      O1894   1.263       .  A
N1892      O1895   1.263       .  A
N1892      O1896   1.262       .  A
C1897      C1898   1.414       .  A
C1897      C1902   1.405       .  A
C1897      H1904   1.074       .  S
C1898      C1899   1.428       .  A
C1899      C1900   1.403       .  A
C1899      N1906   1.432       .  S
C1900      C1901   1.404       .  A
C1900      H1905   1.083       .  S
C1901      C1902   1.418       .  A
C1902      N1903   1.440       .  S
N1903      O1907   1.262       .  A
N1903      O1908   1.260       .  A
N1906      O1909   1.263       .  A
N1906      O1910   1.262       .  A
C1911      C1912   1.405       .  A
C1911      C1916   1.402       .  A
C1911      H2578   1.084       .  S
C1912      C1913   1.413       .  A
C1913      C1914   1.408       .  A
C1913      N1920   1.443       .  S
C1914      C1915   1.405       .  A
C1914      H1919   1.084       .  S
C1915      C1916   1.411       .  A
C1916      N2577   1.445   1_545  S
N1917      C2576   1.445       .  S
N1917      O1921   1.263       .  A
N1917      O1922   1.263       .  A
H1918      C2571   1.084       .  S
N1920      O1923   1.263       .  A
N1920      O1924   1.263       .  A
C1925      C1926   1.403       .  A
C1925      C1930   1.404       .  A
C1925      H1932   1.084       .  S
C1927      C1928   1.405       .  A
C1927      N1934   1.432       .  S
C1928      H1933   1.083       .  S
C1929      C1930   1.423       .  A
C1930      N1931   1.436       .  S
N1931      O1935   1.263       .  A
N1931      O1936   1.263       .  A
N1934      O1937   1.261       .  A
C1939      C1940   1.403       .  A
C1939      C1944   1.403       .  A
C1939      H1946   1.084       .  S
C1941      C1942   1.406       .  A
C1941      N1948   1.433       .  S
C1942      H1947   1.081       .  S
C1943      C1944   1.424       .  A
C1944      N1945   1.434       .  S
N1945      O1949   1.263       .  A
N1948      O1952   1.263       .  A
C1953      C1958   1.398       .  A
C1953      H1960   1.084       .  S
C1954      C1955   1.416       .  A
C1955      C1956   1.408       .  A
C1955      N1962   1.439       .  S
C1956      H1961   1.084       .  S
C1957      C1958   1.413       .  A
C1958      N1959   1.437       .  S
N1959      O1963   1.263       .  A
N1962      O1965   1.263       .  A
C1967      C1972   1.400       .  A
C1967      H1974   1.084       .  S
C1968      C1969   1.417       .  A
C1969      C1970   1.402       .  A
C1969      N1976   1.431       .  S
C1970      C1971   1.404       .  A
C1970      H1975   1.083       .  S
C1972      N1973   1.436       .  S
N1973      O1977   1.263       .  A
N1973      O1978   1.263       .  A
N1976      O2639   1.262       .  A
N1976      O1980   1.262       .  A
O1979      N2636   1.262       .  A
C1981      C2312   1.421       .  A
C1981      C1986   1.425   1_554  A
C1981      C2301   1.489       .  S
C1982      C2311   1.421       .  A
C1982      C1983   1.400       .  A
C1982      H1987   1.083       .  S
C1983      C1984   1.400       .  A
C1983      C1992   1.498       .  S
C1984      C2315   1.405       .  A
C1984      H1988   1.068       .  S
C1985      C2314   1.405       .  A
C1985      C1986   1.403       .  A
C1985      C2010   1.505       .  S
C1986      H1989   1.082   1_556  S
C1990      C1991   1.421       .  A
C1990      C2325   1.425       .  A
C1990      C2284   1.491       .  S
C1991      C1992   1.398       .  A
C1991      H1996   1.083       .  S
C1992      C1993   1.401       .  A
C1993      C2324   1.406       .  A
C1993      H1997   1.069       .  S
C1994      C2323   1.406       .  A
C1994      C1995   1.403       .  A
C1994      C2001   1.506       .  S
C1995      C2320   1.425   1_554  A
C1995      H1998   1.081       .  S
C1999      C2000   1.433       .  A
C1999      C2004   1.438       .  A
C1999      C2273   1.506       .  S
C2000      C2001   1.405       .  A
C2000      H2005   1.082       .  S
C2001      C2002   1.388   1_554  A
C2002      C2003   1.394   1_556  A
C2002      H2006   1.057       .  S
C2003      C2004   1.404       .  A
C2003      C2012   1.514       .  S
C2004      H2007   1.080       .  S
C2008      C2009   1.431       .  A
C2008      C2013   1.435       .  A
C2008      C2259   1.499       .  S
C2009      C2010   1.403       .  A
C2009      H2014   1.083       .  S
C2010      C2011   1.389   1_556  A
C2011      C2012   1.395       .  A
C2011      H2015   1.058       .  S
C2012      C2013   1.405   1_554  A
C2013      H2016   1.081       .  S
C2017      C2018   1.420       .  A
C2017      C2022   1.424       .  A
C2017      C2242   1.475       .  S
C2018      C2019   1.399       .  A
C2018      H2023   1.083       .  S
C2019      C2020   1.400       .  A
C2019      C2028   1.502       .  S
C2020      C2021   1.396       .  A
C2020      H2024   1.060       .  S
C2021      C2022   1.404       .  A
C2021      C2046   1.505       .  S
C2022      H2025   1.083       .  S
C2026      C2027   1.434       .  A
C2026      C2031   1.439       .  A
C2026      C2228   1.522       .  S
C2027      C2028   1.404       .  A
C2027      H2032   1.079       .  S
C2028      C2029   1.390       .  A
C2029      C2030   1.387       .  A
C2029      H2033   1.056       .  S
C2030      C2031   1.400       .  A
C2030      C2037   1.504       .  S
C2031      H2034   1.078       .  S
C2035      C2036   1.432       .  A
C2035      C2040   1.426       .  A
C2035      C2217   1.507       .  S
C2036      C2037   1.401       .  A
C2036      H2041   1.079       .  S
C2037      C2038   1.397       .  A
C2038      C2039   1.393       .  A
C2038      H2042   1.064       .  S
C2039      C2040   1.403       .  A
C2039      C2048   1.495       .  S
C2040      H2043   1.082       .  S
C2044      C2045   1.428       .  A
C2044      C2049   1.421       .  A
C2044      C2200   1.498       .  S
C2045      C2046   1.402       .  A
C2045      H2050   1.081       .  S
C2046      C2047   1.403       .  A
C2047      C2048   1.400       .  A
C2047      H2051   1.067       .  S
C2048      C2049   1.399       .  A
C2049      H2052   1.083       .  S
C2053      C2054   1.420       .  A
C2053      C2058   1.424       .  A
C2053      C2186   1.482       .  S
C2054      C2055   1.399       .  A
C2054      H2059   1.083       .  S
C2055      C2056   1.399       .  A
C2055      C2064   1.497       .  S
C2056      C2057   1.400       .  A
C2056      H2060   1.065       .  S
C2057      C2058   1.402       .  A
C2057      C2073   1.502       .  S
C2058      H2061   1.083       .  S
C2062      C2063   1.423       .  A
C2062      C2067   1.427       .  A
C2062      C2175   1.486       .  S
C2063      C2064   1.400       .  A
C2063      H2068   1.083       .  S
C2064      C2065   1.396       .  A
C2065      C2066   1.400       .  A
C2065      H2069   1.062       .  S
C2066      C2067   1.399       .  A
C2066      C2082   1.504       .  S
C2067      H2070   1.082       .  S
C2071      C2072   1.422       .  A
C2071      C2076   1.423       .  A
C2071      C2161   1.473       .  S
C2072      C2073   1.400       .  A
C2072      H2077   1.083       .  S
C2073      C2074   1.395       .  A
C2074      C2075   1.400       .  A
C2074      H2078   1.060       .  S
C2075      C2076   1.403       .  A
C2075      C2084   1.507       .  S
C2076      H2079   1.083       .  S
C2080      C2081   1.429       .  A
C2080      C2085   1.430       .  A
C2080      C2144   1.488       .  S
C2081      C2082   1.402       .  A
C2081      H2086   1.083       .  S
C2082      C2083   1.391       .  A
C2083      C2084   1.392       .  A
C2083      H2087   1.055       .  S
C2084      C2085   1.403       .  A
C2085      H2088   1.082       .  S
O2089      C2100   1.288       .  A
O2090      C2101   1.297       .  A
O2091      C2102   1.291       .  A
O2091     Zr2427   2.429       .  S
O2092      C2103   1.293       .  A
O2092     Zr2097   2.441   1_554  S
O2093      C2103   1.293       .  A
O2094      C2102   1.293       .  A
O2095      C2101   1.294       .  A
O2095     Zr2097   2.445       .  S
O2096      C2100   1.295   1_556  A
Zr2097     O2421   2.429       .  S
O2098     Zr2124   2.354   1_554  S
O2098     Zr2127   2.348       .  S
O2099     Zr2126   2.345       .  S
C2100      C2298   1.484       .  S
C2101      C2256   1.494       .  S
C2102      C2172   1.483       .  S
C2103      C2147   1.484       .  S
H2104      O2105   0.965       .  S
O2105     Zr2454   2.337       .  S
O2105     Zr2126   2.331       .  S
H2106      O2107   0.965       .  S
O2107     Zr2127   2.330       .  S
O2108      C2131   1.297       .  A
O2108     Zr2124   2.455   1_554  S
O2109      C2132   1.292   1_554  A
O2109     Zr2125   2.435       .  S
O2110      C2133   1.291       .  A
O2110     Zr2126   2.439       .  S
O2111      C2134   1.289       .  A
O2111     Zr2127   2.431       .  S
O2112      C2135   1.292       .  A
O2113      C2136   1.291       .  A
O2114      C2137   1.293       .  A
O2114     Zr2458   2.445       .  S
O2115      C2138   1.291       .  A
O2115     Zr2128   2.437       .  S
O2116      C2137   1.292       .  A
O2116     Zr2126   2.434       .  S
O2117      C2138   1.292       .  A
O2117     Zr2127   2.438       .  S
O2118      C2133   1.294       .  A
O2118     Zr2454   2.444       .  S
O2119      C2136   1.292       .  A
O2119     Zr2455   2.439       .  S
O2120      C2135   1.293       .  A
O2120     Zr2125   2.439       .  S
O2121      C2134   1.295       .  A
O2121     Zr2124   2.446   1_554  S
O2122      C2131   1.290       .  A
O2122     Zr2128   2.437       .  S
O2123      C2132   1.292       .  A
Zr2124     O2448   2.443       .  S
Zr2124     O2435   2.337       .  S
Zr2124     O2460   2.351       .  S
Zr2124     O2142   2.331   1_556  S
Zr2125     O2449   2.439   1_554  S
Zr2126     O2130   2.348       .  S
Zr2126     O2140   2.335       .  S
Zr2127     O2129   2.350       .  S
Zr2127     O2142   2.331       .  S
Zr2128     O2444   2.445   1_554  S
Zr2128     O2129   2.348       .  S
Zr2128     O2460   2.349   1_554  S
Zr2128     O2142   2.333       .  S
Zr2128     O2470   2.329   1_554  S
O2130     Zr2454   2.351       .  S
O2130     Zr2458   2.349       .  S
C2131      C2270   1.498       .  S
C2132      C2287   1.485       .  S
C2133      C2231   1.499       .  S
C2134      C2214   1.494       .  S
C2135      C2203   1.486       .  S
C2136      C2245   1.466       .  S
C2137      C2189   1.476       .  S
C2138      C2158   1.467       .  S
H2139      O2140   0.965       .  S
O2140     Zr2458   2.329       .  S
H2141      O2142   0.965       .  S
C2143      C2144   1.403       .  A
C2143      C2148   1.404       .  A
C2143      H2150   1.083       .  S
C2144      C2145   1.420       .  A
C2145      C2146   1.402       .  A
C2145      N2152   1.436       .  S
C2146      C2147   1.401       .  A
C2146      H2151   1.084       .  S
C2147      C2148   1.416       .  A
C2148      N2149   1.434       .  S
N2149      O2153   1.263       .  A
N2149      O2154   1.262       .  A
N2152      O2155   1.263       .  A
N2152      O2156   1.263       .  A
C2157      C2158   1.405       .  A
C2157      C2162   1.409       .  A
C2157      H2164   1.084       .  S
C2158      C2159   1.412       .  A
C2159      C2160   1.401       .  A
C2160      C2161   1.405       .  A
C2161      C2162   1.415       .  A
C2162      N2163   1.446       .  S
N2163      O2167   1.263       .  A
N2163      O2168   1.262       .  A
N2166      O2169   1.262       .  A
N2166      O2170   1.263       .  A
C2171      C2172   1.402       .  A
C2171      C2176   1.401       .  A
C2171      H2178   1.084       .  S
C2172      C2173   1.414       .  A
C2173      C2174   1.400       .  A
C2173      N2180   1.430       .  S
C2174      C2175   1.401       .  A
C2174      H2179   1.083       .  S
C2175      C2176   1.420       .  A
C2176      N2177   1.436       .  S
N2177      O2181   1.263       .  A
N2177      O2182   1.262       .  A
N2180      O2183   1.262       .  A
C2185      C2186   1.405       .  A
C2185      C2190   1.407       .  A
C2185      H2192   1.083       .  S
C2186      C2187   1.416       .  A
C2187      C2188   1.396       .  A
C2187      N2194   1.437       .  S
C2188      C2189   1.397       .  A
C2188      H2193   1.079       .  S
C2189      C2190   1.415       .  A
C2190      N2191   1.437       .  S
N2194      O2197   1.263       .  A
N2194      O2198   1.263       .  A
C2199      C2200   1.407       .  A
C2199      C2204   1.403       .  A
C2199      H2206   1.082       .  S
C2200      C2201   1.423       .  A
C2201      C2202   1.398       .  A
C2201      N2208   1.434       .  S
C2202      C2203   1.400       .  A
C2202      H2207   1.084       .  S
C2203      C2204   1.416       .  A
C2204      N2205   1.433       .  S
N2205      O2209   1.263       .  A
N2208      O2211   1.262       .  A
N2208      O2212   1.263       .  A
C2213      C2214   1.403       .  A
C2213      C2218   1.400       .  A
C2213      H2220   1.084       .  S
C2214      C2215   1.418       .  A
C2215      C2216   1.402       .  A
C2215      N2222   1.433       .  S
C2216      C2217   1.409       .  A
C2216      H2221   1.080       .  S
C2217      C2218   1.425       .  A
C2218      N2219   1.432       .  S
N2219      O2223   1.262       .  A
N2219      O2224   1.263       .  A
N2222      O2225   1.263       .  A
N2222      O2226   1.262       .  A
C2227      C2228   1.414       .  A
C2227      C2232   1.405       .  A
C2227      H2234   1.074       .  S
C2228      C2229   1.428       .  A
C2229      C2230   1.403       .  A
C2229      N2236   1.432       .  S
C2230      C2231   1.404       .  A
C2230      H2235   1.083       .  S
C2231      C2232   1.418       .  A
C2232      N2233   1.441       .  S
N2233      O2237   1.262       .  A
N2233      O2238   1.260       .  A
N2236      O2239   1.263       .  A
N2236      O2240   1.262       .  A
C2241      C2242   1.405       .  A
C2241      C2246   1.402       .  A
C2242      C2243   1.413       .  A
C2243      C2244   1.408       .  A
C2243      N2250   1.443       .  S
C2244      C2245   1.405       .  A
C2244      H2249   1.084       .  S
C2245      C2246   1.411       .  A
N2247      O2251   1.263       .  A
N2247      O2252   1.263       .  A
N2250      O2253   1.263       .  A
N2250      O2254   1.263       .  A
C2255      C2256   1.403   1_554  A
C2255      C2260   1.404       .  A
C2255      H2262   1.084       .  S
C2256      C2587   1.419       .  A
C2257      C2586   1.419       .  A
C2257      C2258   1.405       .  A
C2257      N2264   1.432       .  S
C2258      C2589   1.405       .  A
C2258      H2263   1.083       .  S
C2259      C2588   1.405       .  A
C2259      C2260   1.423   1_556  A
C2260      N2261   1.436       .  S
N2261      O2265   1.263       .  A
N2261      O2266   1.263       .  A
N2264      O2267   1.261       .  A
N2264      O2598   1.263       .  A
O2268      N2594   1.263       .  A
C2269      C2270   1.403       .  A
C2269      C2274   1.403       .  A
C2269      H2276   1.084   1_554  S
C2270      C2601   1.420       .  A
C2271      C2600   1.420       .  A
C2271      C2272   1.406       .  A
C2271      N2278   1.433       .  S
C2272      C2603   1.408       .  A
C2272      H2277   1.081       .  S
C2273      C2602   1.408       .  A
C2273      C2274   1.424       .  A
C2274      N2275   1.434   1_554  S
N2275      O2279   1.263   1_556  A
N2275      O2610   1.262       .  A
N2278      O2611   1.262       .  A
N2278      O2282   1.263       .  A
O2280      N2605   1.262       .  A
O2281      N2608   1.262       .  A
C2283      C2614   1.407   1_554  A
C2283      C2288   1.398       .  A
C2283      H2290   1.084       .  S
C2284      C2613   1.407       .  A
C2284      C2285   1.416       .  A
C2285      C2286   1.408       .  A
C2285      N2292   1.439       .  S
C2286      C2617   1.408       .  A
C2286      H2291   1.084       .  S
C2287      C2616   1.408       .  A
C2287      C2288   1.413   1_556  A
C2288      N2289   1.437       .  S
N2289      O2293   1.263       .  A
N2292      O2295   1.263       .  A
N2292      O2626   1.263       .  A
O2296      N2622   1.263       .  A
C2297      C2628   1.401       .  A
C2297      C2302   1.400       .  A
C2297      H2304   1.084       .  S
C2298      C2627   1.401   1_554  A
C2298      C2299   1.417       .  A
C2299      C2300   1.402       .  A
C2299      N2306   1.431       .  S
C2300      C2301   1.404       .  A
C2300      H2305   1.083       .  S
C2301      C2632   1.421   1_554  A
C2302      C2631   1.421       .  A
C2302      N2303   1.436       .  S
N2303      O2307   1.263       .  A
N2303      O2308   1.263       .  A
N2306      O2310   1.262       .  A
C2311      C2316   1.425       .  A
C2311      C2631   1.489       .  S
C2312      C2313   1.400   1_554  A
C2312      H2317   1.083       .  S
C2313      C2314   1.400       .  A
C2313      C2322   1.498   1_556  S
C2314      H2318   1.068       .  S
C2315      C2316   1.403       .  A
C2315      C2340   1.505       .  S
C2316      H2319   1.082       .  S
C2320      C2321   1.421       .  A
C2320      C2614   1.491       .  S
C2321      C2322   1.398   1_556  A
C2321      H2326   1.083       .  S
C2322      C2323   1.401       .  A
C2323      H2327   1.069       .  S
C2324      C2325   1.403       .  A
C2324      C2331   1.506       .  S
C2325      H2328   1.081       .  S
C2329      C2330   1.433       .  A
C2329      C2334   1.438       .  A
C2329      C2603   1.507       .  S
C2330      C2331   1.405       .  A
C2330      H2335   1.082       .  S
C2331      C2332   1.388       .  A
C2332      C2333   1.394       .  A
C2332      H2336   1.057       .  S
C2333      C2334   1.404       .  A
C2333      C2342   1.514       .  S
C2334      H2337   1.080       .  S
C2338      C2339   1.431       .  A
C2338      C2343   1.435       .  A
C2338      C2589   1.499       .  S
C2339      C2340   1.403       .  A
C2339      H2344   1.083       .  S
C2340      C2341   1.389       .  A
C2341      C2342   1.395       .  A
C2341      H2345   1.058       .  S
C2342      C2343   1.405       .  A
C2343      H2346   1.081       .  S
C2347      C2348   1.420       .  A
C2347      C2352   1.424       .  A
C2347      C2572   1.475       .  S
C2348      C2349   1.399       .  A
C2348      H2353   1.083       .  S
C2349      C2350   1.399       .  A
C2349      C2358   1.502       .  S
C2350      C2351   1.395       .  A
C2350      H2354   1.060       .  S
C2351      C2352   1.404       .  A
C2351      C2376   1.505       .  S
C2352      H2355   1.083       .  S
C2356      C2357   1.433       .  A
C2356      C2361   1.439       .  A
C2356      C2558   1.522       .  S
C2357      C2358   1.404       .  A
C2357      H2362   1.079       .  S
C2358      C2359   1.390       .  A
C2359      C2360   1.387       .  A
C2359      H2363   1.056       .  S
C2360      C2361   1.401       .  A
C2360      C2367   1.504       .  S
C2361      H2364   1.078       .  S
C2365      C2366   1.432       .  A
C2365      C2370   1.426       .  A
C2365      C2547   1.506       .  S
C2366      C2367   1.401       .  A
C2366      H2371   1.079       .  S
C2367      C2368   1.398       .  A
C2368      C2369   1.393       .  A
C2368      H2372   1.064       .  S
C2369      C2370   1.403       .  A
C2369      C2378   1.495       .  S
C2370      H2373   1.082       .  S
C2374      C2375   1.428       .  A
C2374      C2379   1.421       .  A
C2374      C2530   1.497       .  S
C2375      C2376   1.402       .  A
C2375      H2380   1.081       .  S
C2376      C2377   1.403       .  A
C2377      C2378   1.400       .  A
C2377      H2381   1.067       .  S
C2378      C2379   1.399       .  A
C2379      H2382   1.083       .  S
C2383      C2384   1.420       .  A
C2383      C2388   1.424       .  A
C2383      C2516   1.482       .  S
C2384      C2385   1.399       .  A
C2384      H2389   1.083       .  S
C2385      C2386   1.399       .  A
C2385      C2394   1.497       .  S
C2386      C2387   1.399       .  A
C2386      H2390   1.064       .  S
C2387      C2388   1.402       .  A
C2387      C2403   1.502       .  S
C2388      H2391   1.083       .  S
C2392      C2393   1.423       .  A
C2392      C2397   1.427       .  A
C2392      C2505   1.486       .  S
C2393      C2394   1.399       .  A
C2393      H2398   1.083       .  S
C2394      C2395   1.396       .  A
C2395      C2396   1.400       .  A
C2395      H2399   1.061       .  S
C2396      C2397   1.399       .  A
C2396      C2412   1.504       .  S
C2397      H2400   1.082       .  S
C2401      C2402   1.422       .  A
C2401      C2406   1.424       .  A
C2401      C2491   1.473       .  S
C2402      C2403   1.400       .  A
C2402      H2407   1.083       .  S
C2403      C2404   1.395       .  A
C2404      C2405   1.400       .  A
C2404      H2408   1.060       .  S
C2405      C2406   1.403       .  A
C2405      C2414   1.507       .  S
C2406      H2409   1.083       .  S
C2410      C2411   1.429       .  A
C2410      C2415   1.430       .  A
C2410      C2474   1.488       .  S
C2411      C2412   1.402       .  A
C2411      H2416   1.083       .  S
C2412      C2413   1.391       .  A
C2413      C2414   1.392       .  A
C2413      H2417   1.055       .  S
C2414      C2415   1.403       .  A
C2415      H2418   1.082       .  S
O2419      C2430   1.288       .  A
O2420      C2431   1.297       .  A
O2421      C2432   1.291       .  A
O2422      C2433   1.293       .  A
O2422     Zr2427   2.442       .  S
O2423      C2433   1.293       .  A
O2424      C2432   1.293       .  A
O2425      C2431   1.294       .  A
O2425     Zr2427   2.445       .  S
O2426      C2430   1.295       .  A
O2428     Zr2454   2.355       .  S
O2428     Zr2457   2.348       .  S
O2429     Zr2456   2.345       .  S
C2430      C2628   1.484       .  S
C2431      C2586   1.494       .  S
C2432      C2502   1.483       .  S
C2433      C2477   1.484       .  S
H2434      O2435   0.965       .  S
O2435     Zr2456   2.331       .  S
H2436      O2437   0.965       .  S
O2437     Zr2457   2.330       .  S
O2438      C2461   1.297       .  A
O2438     Zr2454   2.455       .  S
O2439      C2462   1.292       .  A
O2439     Zr2455   2.435       .  S
O2440      C2463   1.291       .  A
O2440     Zr2456   2.440       .  S
O2441      C2464   1.289       .  A
O2441     Zr2457   2.431       .  S
O2442      C2465   1.292       .  A
O2443      C2466   1.291       .  A
O2444      C2467   1.293       .  A
O2445      C2468   1.291       .  A
O2445     Zr2458   2.437       .  S
O2446      C2467   1.292       .  A
O2446     Zr2456   2.433       .  S
O2447      C2468   1.292       .  A
O2447     Zr2457   2.438       .  S
O2448      C2463   1.294       .  A
O2449      C2466   1.292       .  A
O2450      C2465   1.293       .  A
O2450     Zr2455   2.439       .  S
O2451      C2464   1.295       .  A
O2451     Zr2454   2.446       .  S
O2452      C2461   1.290       .  A
O2452     Zr2458   2.437       .  S
O2453      C2462   1.293       .  A
Zr2454     O2472   2.331       .  S
Zr2456     O2460   2.348       .  S
Zr2456     O2470   2.335       .  S
Zr2457     O2459   2.350       .  S
Zr2457     O2472   2.331       .  S
Zr2458     O2459   2.348       .  S
Zr2458     O2472   2.333       .  S
C2461      C2600   1.498       .  S
C2462      C2617   1.485       .  S
C2463      C2561   1.499       .  S
C2464      C2544   1.494       .  S
C2465      C2533   1.486       .  S
C2466      C2575   1.466       .  S
C2467      C2519   1.476       .  S
C2468      C2488   1.466       .  S
H2469      O2470   0.965       .  S
H2471      O2472   0.965       .  S
C2473      C2474   1.403       .  A
C2473      C2478   1.404       .  A
C2473      H2480   1.083       .  S
C2474      C2475   1.420       .  A
C2475      C2476   1.402       .  A
C2475      N2482   1.436       .  S
C2476      C2477   1.401       .  A
C2476      H2481   1.084       .  S
C2477      C2478   1.416       .  A
C2478      N2479   1.434       .  S
N2479      O2483   1.263       .  A
N2479      O2484   1.262       .  A
N2482      O2485   1.263       .  A
N2482      O2486   1.263       .  A
C2487      C2488   1.405       .  A
C2487      C2492   1.409       .  A
C2487      H2494   1.084       .  S
C2488      C2489   1.412       .  A
C2489      C2490   1.401       .  A
C2490      C2491   1.405       .  A
C2491      C2492   1.415       .  A
C2492      N2493   1.446       .  S
N2493      O2497   1.263       .  A
N2493      O2498   1.262       .  A
N2496      O2499   1.262       .  A
N2496      O2500   1.263       .  A
C2501      C2502   1.402       .  A
C2501      C2506   1.401       .  A
C2501      H2508   1.084       .  S
C2502      C2503   1.414       .  A
C2503      C2504   1.400       .  A
C2503      N2510   1.430       .  S
C2504      C2505   1.400       .  A
C2504      H2509   1.083       .  S
C2505      C2506   1.420       .  A
C2506      N2507   1.436       .  S
N2507      O2511   1.263       .  A
N2507      O2512   1.262       .  A
N2510      O2513   1.262       .  A
C2515      C2516   1.405       .  A
C2515      C2520   1.407       .  A
C2515      H2522   1.083       .  S
C2516      C2517   1.416       .  A
C2517      C2518   1.396       .  A
C2517      N2524   1.437       .  S
C2518      C2519   1.397       .  A
C2518      H2523   1.079       .  S
C2519      C2520   1.415       .  A
C2520      N2521   1.437       .  S
N2524      O2527   1.263       .  A
N2524      O2528   1.263       .  A
C2529      C2530   1.407       .  A
C2529      C2534   1.403       .  A
C2529      H2536   1.082       .  S
C2530      C2531   1.423       .  A
C2531      C2532   1.398       .  A
C2531      N2538   1.434       .  S
C2532      C2533   1.400       .  A
C2532      H2537   1.084       .  S
C2533      C2534   1.416       .  A
C2534      N2535   1.433       .  S
N2535      O2539   1.263       .  A
N2538      O2541   1.262       .  A
N2538      O2542   1.263       .  A
C2543      C2544   1.403       .  A
C2543      C2548   1.400       .  A
C2543      H2550   1.084       .  S
C2544      C2545   1.418       .  A
C2545      C2546   1.402       .  A
C2545      N2552   1.433       .  S
C2546      C2547   1.409       .  A
C2546      H2551   1.080       .  S
C2547      C2548   1.425       .  A
C2548      N2549   1.432       .  S
N2549      O2553   1.262       .  A
N2549      O2554   1.263       .  A
N2552      O2555   1.263       .  A
N2552      O2556   1.262       .  A
C2557      C2558   1.414       .  A
C2557      C2562   1.405       .  A
C2557      H2564   1.074       .  S
C2558      C2559   1.429       .  A
C2559      C2560   1.403       .  A
C2559      N2566   1.432       .  S
C2560      C2561   1.404       .  A
C2560      H2565   1.083       .  S
C2561      C2562   1.418       .  A
C2562      N2563   1.440       .  S
N2563      O2567   1.262       .  A
N2563      O2568   1.260       .  A
N2566      O2569   1.263       .  A
N2566      O2570   1.262       .  A
C2571      C2572   1.405       .  A
C2571      C2576   1.402       .  A
C2572      C2573   1.413       .  A
C2573      C2574   1.408       .  A
C2573      N2580   1.443       .  S
C2574      C2575   1.405       .  A
C2574      H2579   1.084       .  S
C2575      C2576   1.411       .  A
N2577      O2581   1.263       .  A
N2577      O2582   1.263       .  A
N2580      O2583   1.263       .  A
N2580      O2584   1.263       .  A
C2585      C2586   1.403       .  A
C2585      C2590   1.404       .  A
C2585      H2592   1.084       .  S
C2587      C2588   1.405       .  A
C2587      N2594   1.432       .  S
C2588      H2593   1.083       .  S
C2589      C2590   1.423       .  A
C2590      N2591   1.436       .  S
N2591      O2595   1.263       .  A
N2591      O2596   1.263       .  A
N2594      O2597   1.261       .  A
C2599      C2600   1.403       .  A
C2599      C2604   1.403       .  A
C2599      H2606   1.084       .  S
C2601      C2602   1.406       .  A
C2601      N2608   1.433       .  S
C2602      H2607   1.081       .  S
C2603      C2604   1.424       .  A
C2604      N2605   1.434       .  S
N2605      O2609   1.263       .  A
N2608      O2612   1.263       .  A
C2613      C2618   1.398       .  A
C2613      H2620   1.084       .  S
C2614      C2615   1.416       .  A
C2615      C2616   1.408       .  A
C2615      N2622   1.439       .  S
C2616      H2621   1.084       .  S
C2617      C2618   1.413       .  A
C2618      N2619   1.437       .  S
N2619      O2623   1.263       .  A
N2622      O2625   1.263       .  A
C2627      C2632   1.400       .  A
C2627      H2634   1.084       .  S
C2628      C2629   1.417       .  A
C2629      C2630   1.402       .  A
C2629      N2636   1.431       .  S
C2630      C2631   1.404       .  A
C2630      H2635   1.083       .  S
C2632      N2633   1.436       .  S
N2633      O2637   1.263       .  A
N2633      O2638   1.263       .  A
N2636      O2640   1.262       .  A
