geometry optimzed in LAMMPS
_audit_creation_date              2020-12-01 
_audit_creation_method            'lammps2cif' 
_symmetry_space_group_name_H-M    'P1' 
_symmetry_Int_Tables_number       1 
_symmetry_cell_setting            triclinic 
loop_ 
_symmetry_equiv_pos_as_xyz 
  x,y,z 
_cell_length_a                    33.71051026 
_cell_length_b                    35.24784693187039 
_cell_length_c                    35.30508634790204 
_cell_angle_alpha                 89.44148051920057 
_cell_angle_beta                  90.12045313091181 
_cell_angle_gamma                 83.04882505765481 
loop_ 
_atom_site_label 
_atom_site_type_symbol 
_atom_site_fract_x 
_atom_site_fract_y 
_atom_site_fract_z 
_atom_site_charge 
C1          C  0.85729325  0.87301292  0.62972572    -0.02100
C2          C  0.49233946  0.55956087  0.60848670    -0.02100
C3          C  0.84704720  0.55273827  0.94238316    -0.02100
C4          C  0.52678136  0.86138667  0.94133474    -0.02100
C5          C  0.98137318  0.04833763  0.43333321    -0.02100
C6          C  0.02800999  0.35872042  0.11723807    -0.02100
C7          C  0.35371515  0.05410618  0.11427807    -0.02100
C8          C  0.36573703  0.38154563  0.42367444    -0.02100
Zr9        Zr  0.90129261  0.92001734  0.97649702     2.17500
O10         O  0.85071929  0.92530593  0.92641459    -0.50900
O11         O  0.90300646  0.85054842  0.97858402    -0.74100
O12         O  0.92852750  0.91168068  0.91365125    -0.80900
O13         O  0.81715203  0.93759369  0.04870858    -0.82600
O14         O  0.99085346  0.93029802  0.91123279    -0.78300
O15         O  0.83111891  0.91981795  0.98813712    -0.89900
O16         O  0.94597821  0.82578155  0.02461528    -0.75900
O17         O  0.96941473  0.89695506  0.98854685    -0.85400
O18         O  0.90300416  0.90162523  0.04134241    -0.85000
O19         O  0.93751925  0.97303562  0.96220513    -0.71800
O20         O  0.87641450  0.97688732  0.00991738    -0.83900
Zr21       Zr  0.98448588  0.98737936  0.07504031     2.26400
Zr22       Zr  0.00617383  0.94999680  0.97564861     2.06300
Zr23       Zr  0.87880939  0.95823756  0.07527675     2.10000
Zr24       Zr  0.97131908  0.87953525  0.05397258     1.78800
O25         O  0.82642975  0.01086904  0.08624883    -0.92700
O26         O  0.02949149  0.83650553  0.03425905    -0.40500
O27         O  0.94723875  0.93527891  0.08904761    -0.77200
O28         O  0.00967145  0.93096033  0.04111925    -0.95900
O29         O  0.98297672  0.00642357  0.01040087    -0.89200
O30         O  0.91642663  0.01053479  0.06274349    -0.92000
C31         C  0.92085091  0.82253047  0.99803980     1.01700
C32         C  0.80718823  0.92526502  0.01612441     1.14700
C33         C  0.96014277  0.91807158  0.89595867     1.05500
O34         O  0.05990315  0.89918116  0.96286769    -0.94200
O35         O  0.06834336  0.97067513  0.00075435    -0.89900
O36         O  0.05389171  0.99142669  0.06053503    -0.83100
C37         C  0.07807237  0.98406028  0.03290140     1.12100
O38         O  0.87224242  0.04366173  0.94249291    -0.96100
Zr39       Zr  0.91487110  0.02884368  0.99778999     1.88900
O40         O  0.98196504  0.05701091  0.07672479    -0.72800
O41         O  0.02748418  0.99473568  0.92912485    -0.52100
O42         O  0.94712676  0.06418202  0.94956203    -0.96700
O43         O  0.85395714  0.06993478  0.01392115    -0.53900
O44         O  0.94025801  0.08205622  0.02974146    -0.73300
C45         C  0.96426448  0.08531332  0.05749565     0.99000
O46         O  0.02572243  0.97573613  0.13186857    -0.62100
O47         O  0.85426461  0.91459984  0.12112745    -0.56900
O48         O  0.95798576  0.99293270  0.13788162    -0.93600
O49         O  0.89379465  0.98006009  0.13914657    -0.92000
O50         O  0.94247951  0.84539574  0.10535955    -0.92400
O51         O  0.01975344  0.86575488  0.10504521    -0.91200
C52         C  0.92499435  0.99077877  0.15507340     1.17900
H53         H  0.88617390  0.88178920  0.04620877     0.33800
H54         H  0.03700992  0.92251917  0.04834058     0.44700
H55         H  0.90752052  0.03194177  0.07868781     0.38200
H56         H  0.93428162  0.98029327  0.93589201     0.34700
H57         H  0.02600116  0.81158302  0.04618505     0.26500
H58         H  0.02557428  0.01948209  0.94243568     0.32400
H59         H  0.93200998  0.09008441  0.94939186     0.38300
H60         H  0.95597562  0.81889155  0.10391077     0.32800
H61         H  0.84619836  0.89327792  0.10601702     0.31700
H62         H  0.83721641  0.02675574  0.10583799     0.33300
H63         H  0.85725827  0.07640065  0.04087921     0.32300
H64         H  0.00994478  0.88341375  0.12553844     0.36300
H65         H  0.03782810  0.94883160  0.12988158     0.29000
H66         H  0.85518895  0.90122706  0.91196302     0.33300
H67         H  0.85816345  0.02082102  0.93923791     0.36100
H68         H  0.87855324  0.90319983  0.13481352     0.28700
H69         H  0.04827444  0.99116230  0.12964099     0.41600
H70         H  0.04661401  0.87889027  0.95067125     0.31700
H71         H  0.02533509  0.83261931  0.00687412     0.39300
H72         H  0.83279104  0.05274979  0.01404982     0.31100
H73         H  0.05651828  0.98703057  0.92606617     0.31200
H74         H  0.85769492  0.94549460  0.90880122     0.31400
Zr75       Zr  0.88057458  0.51403457  0.56162209     2.17500
O76         O  0.83577813  0.57252029  0.54948569    -0.50900
O77         O  0.87131259  0.51620586  0.62989558    -0.74100
O78         O  0.81136680  0.50146040  0.56614524    -0.80900
O79         O  0.96699750  0.57428736  0.55256921    -0.82600
O80         O  0.80684414  0.44022267  0.54838461    -0.78300
O81         O  0.90279655  0.57506378  0.57304325    -0.89900
O82         O  0.91254606  0.46631937  0.65439895    -0.75900
O83         O  0.88573881  0.44913136  0.58155049    -0.85400
O84         O  0.94755507  0.49968490  0.58400623    -0.85000
O85         O  0.86561878  0.48009648  0.50576887    -0.71800
O86         O  0.92320917  0.52590411  0.50935364    -0.83900
Zr87       Zr  0.98199247  0.41079562  0.49513746     2.26400
Zr88       Zr  0.87323024  0.41451068  0.52550046     2.06300
Zr89       Zr  0.99056479  0.50977765  0.53155603     2.10000
Zr90       Zr  0.95257056  0.43473728  0.60330172     1.78800
O91         O  0.01645706  0.55729463  0.49100736    -0.92700
O92         O  0.92662052  0.38003533  0.63276228    -0.40500
O93         O  0.99699149  0.44418747  0.55146607    -0.77200
O94         O  0.94064456  0.39829982  0.54831796    -0.95900
O95         O  0.91533955  0.42509169  0.47276465    -0.89200
O96         O  0.97633633  0.47585713  0.47580640    -0.92000
C97         C  0.88590283  0.49545044  0.65781481     1.01700
C98         C  0.93442754  0.59080188  0.56680745     1.14700
C99         C  0.79154464  0.47309759  0.56050265     1.05500
O100        O  0.84727072  0.36608094  0.56483428    -0.94200
O101        O  0.89563877  0.35037669  0.50376600    -0.89900
O102        O  0.96091391  0.34859950  0.48675390    -0.83100
C103        C  0.92889012  0.33312473  0.49187005     1.12100
O104        O  0.85557707  0.54113311  0.44008173    -0.96100
Zr105      Zr  0.90941072  0.49046548  0.45428990     1.88900
O106        O  0.98618965  0.40769316  0.42620642    -0.72800
O107        O  0.82746005  0.40540653  0.47378682    -0.52100
O108        O  0.85890153  0.47122019  0.41152283    -0.96700
O109        O  0.93477028  0.54459781  0.42332112    -0.53900
O110        O  0.94470487  0.45719481  0.40151497    -0.73300
C111        C  0.97074096  0.42759505  0.39799114     0.99000
O112        O  0.03882513  0.36170214  0.50422273    -0.62100
O113        O  0.03865047  0.52083225  0.58063824    -0.56900
O114        O  0.05000471  0.42263002  0.48617183    -0.93600
O115        O  0.05585958  0.48303781  0.50562566    -0.92000
O116        O  0.00286328  0.45518901  0.64566661    -0.92400
O117        O  0.00385802  0.38605759  0.62778173    -0.91200
C118        C  0.07002917  0.45070944  0.49124287     1.17900
H119        H  0.95263220  0.51576580  0.60510213     0.33800
H120        H  0.94520246  0.37184416  0.55547330     0.44700
H121        H  0.99487824  0.47987377  0.45596478     0.38200
H122        H  0.83850052  0.48784366  0.49757186     0.34700
H123        H  0.92677155  0.38525331  0.66026509     0.26500
H124        H  0.84373371  0.40593766  0.45052969     0.32400
H125        H  0.86455811  0.48273263  0.38671622     0.38300
H126        H  0.98983019  0.47859958  0.65788236     0.32800
H127        H  0.02378721  0.53897184  0.59829501     0.31700
H128        H  0.99276609  0.56999848  0.47730853     0.33300
H129        H  0.92402425  0.54477804  0.39720021     0.32300
H130        H  0.00977255  0.36824728  0.60645789     0.36300
H131        H  0.03511483  0.35089777  0.52972720     0.29000
H132        H  0.81897744  0.57636857  0.57242966     0.33300
H133        H  0.85331961  0.55699636  0.46314597     0.36100
H134        H  0.04313747  0.49644502  0.59501552     0.28700
H135        H  0.03536249  0.34088600  0.48633985     0.41600
H136        H  0.82520363  0.35762886  0.54974753     0.31700
H137        H  0.89795769  0.38290332  0.62576451     0.39300
H138        H  0.96381924  0.53687002  0.42057207     0.31100
H139        H  0.82220549  0.37846564  0.47628866     0.31200
H140        H  0.81741218  0.56610098  0.52931389     0.31400
Zr141      Zr  0.47552240  0.49291653  0.96942856     2.17500
O142        O  0.53088736  0.48049023  0.92489919    -0.50900
O143        O  0.46886416  0.56296988  0.96590952    -0.74100
O144        O  0.45415083  0.49950978  0.90500471    -0.80900
O145        O  0.55338870  0.48376545  0.04859907    -0.82600
O146        O  0.39394103  0.47880490  0.89681161    -0.78300
O147        O  0.54206502  0.50253307  0.98745929    -0.89900
O148        O  0.42350942  0.58600216  0.00999734    -0.75900
O149        O  0.40554644  0.51164989  0.97429061    -0.85400
O150        O  0.46670506  0.51366586  0.03291736    -0.85000
O151        O  0.44504644  0.43682027  0.95353011    -0.71800
O152        O  0.50168519  0.43933717  0.00784393    -0.83900
Zr153      Zr  0.39050178  0.42394664  0.06319764     2.26400
Zr154      Zr  0.37429406  0.45545336  0.96020868     2.06300
Zr155      Zr  0.49168555  0.46004854  0.07184626     2.10000
Zr156      Zr  0.39669153  0.53184422  0.03818800     1.78800
O157        O  0.54833849  0.41622759  0.09442203    -0.92700
O158        O  0.33911430  0.56969247  0.00912951    -0.40500
O159        O  0.42132106  0.47935892  0.07897184    -0.77200
O160        O  0.36406213  0.47703265  0.02414404    -0.95900
O161        O  0.39938252  0.40235552  0.99987715    -0.89200
O162        O  0.46020094  0.40436312  0.05792074    -0.92000
C163        C  0.44931083  0.59049068  0.98433247     1.01700
C164        C  0.56423451  0.49804706  0.01696864     1.14700
C165        C  0.42476451  0.49351233  0.88407259     1.05500
O166        O  0.31793017  0.50026409  0.93865342    -0.94200
O167        O  0.31421738  0.42712293  0.98389488    -0.89900
O168        O  0.32488747  0.41168898  0.04591680    -0.83100
C169        C  0.30330603  0.41356212  0.01605869     1.12100
O170        O  0.52498057  0.36997198  0.95065869    -0.96100
Zr171      Zr  0.46934230  0.38422232  0.99416229     1.88900
O172        O  0.39791506  0.35437203  0.06811467    -0.72800
O173        O  0.35782034  0.40757817  0.91548554    -0.52100
O174        O  0.45335626  0.34494561  0.94123911    -0.96700
O175        O  0.52728083  0.34643656  0.02269576    -0.53900
O176        O  0.44027499  0.33078342  0.02173084    -0.73300
C177        C  0.41579840  0.32672912  0.04877011     0.99000
O178        O  0.33470908  0.43844353  0.10688305    -0.62100
O179        O  0.50367455  0.50871507  0.11757776    -0.56900
O180        O  0.41174222  0.41880894  0.12798049    -0.93600
O181        O  0.47429254  0.43467725  0.13410168    -0.92000
O182        O  0.41401055  0.57247976  0.08954106    -0.92400
O183        O  0.34315601  0.54495896  0.08414029    -0.91200
C184        C  0.44280116  0.42225166  0.14777320     1.17900
H185        H  0.48139878  0.53494510  0.03803855     0.33800
H186        H  0.33583104  0.48333248  0.02889790     0.44700
H187        H  0.46886032  0.38382687  0.07543350     0.38200
H188        H  0.45121016  0.42933633  0.92775604     0.34700
H189        H  0.34879389  0.57804975  0.98431101     0.26500
H190        H  0.33528844  0.42062022  0.90043101     0.32400
H191        H  0.42411392  0.35097428  0.93788185     0.38300
H192        H  0.39984871  0.59808895  0.08341930     0.32800
H193        H  0.51771711  0.52734285  0.10327498     0.31700
H194        H  0.55696970  0.42797466  0.11794637     0.33300
H195        H  0.51697783  0.33411635  0.04535114     0.32300
H196        H  0.34983753  0.52586198  0.10462126     0.36300
H197        H  0.33331374  0.41504025  0.12225047     0.29000
H198        H  0.53237465  0.50467286  0.91083090     0.33300
H199        H  0.52101332  0.39036547  0.93106224     0.36100
H200        H  0.47687598  0.52248614  0.12262797     0.28700
H201        H  0.34299136  0.45743387  0.12482795     0.41600
H202        H  0.31338614  0.49305738  0.91209430     0.31700
H203        H  0.32059658  0.55094775  0.00270294     0.39300
H204        H  0.54355370  0.36555473  0.03297529     0.31100
H205        H  0.38060961  0.40427863  0.89770027     0.31200
H206        H  0.52252552  0.46249802  0.90593736     0.31400
Zr207      Zr  0.46497918  0.91814922  0.57372497     2.17500
O208        O  0.51201367  0.86099578  0.56247727    -0.50900
O209        O  0.46887231  0.92081253  0.64225779    -0.74100
O210        O  0.53364927  0.92760064  0.58625132    -0.80900
O211        O  0.37940175  0.86176145  0.55418613    -0.82600
O212        O  0.54190189  0.98858476  0.57165064    -0.78300
O213        O  0.43753629  0.85938879  0.58765312    -0.89900
O214        O  0.42328323  0.96956166  0.66162954    -0.75900
O215        O  0.46017413  0.98338186  0.59116284    -0.85400
O216        O  0.39659367  0.93591800  0.58920806    -0.85000
O217        O  0.48783197  0.95009554  0.51928634    -0.71800
O218        O  0.42757765  0.90737551  0.51776334    -0.83900
Zr219      Zr  0.37645993  0.02479000  0.49519990     2.26400
Zr220      Zr  0.48176113  0.01594760  0.53679954     2.06300
Zr221      Zr  0.35904192  0.92714807  0.53308967     2.10000
Zr222      Zr  0.39179624  0.00118066  0.60583435     1.78800
O223        O  0.33546600  0.88511938  0.48590000    -0.92700
O224        O  0.41627713  0.05120971  0.64323071    -0.40500
O225        O  0.35357905  0.99301269  0.54990155    -0.77200
O226        O  0.41283844  0.03575313  0.55210740    -0.95900
O227        O  0.44481129  0.00676197  0.48015748    -0.89200
O228        O  0.38037466  0.95943315  0.47814499    -0.92000
C229        C  0.45081676  0.94176987  0.66796962     1.01700
C230        C  0.40788971  0.84421618  0.57421152     1.14700
C231        C  0.55504732  0.95524844  0.58500768     1.05500
O232        O  0.50688008  0.06540725  0.57442093    -0.94200
O233        O  0.46588241  0.08110442  0.51297635    -0.89900
O234        O  0.40473752  0.08378033  0.48509405    -0.83100
C235        C  0.43600747  0.09859363  0.49474250     1.12100
O236        O  0.49313000  0.88246475  0.45235911    -0.96100
Zr237      Zr  0.44900746  0.94116891  0.46380190     1.88900
O238        O  0.37847299  0.02443790  0.42623820    -0.72800
O239        O  0.53454067  0.01702318  0.48990511    -0.52100
O240        O  0.50962891  0.95444821  0.43132736    -0.96700
O241        O  0.41963738  0.89654356  0.42295487    -0.53900
O242        O  0.42656573  0.97772380  0.40779713    -0.73300
C243        C  0.39960424  0.00574799  0.40079657     0.99000
O244        O  0.32885757  0.08256490  0.49607775    -0.62100
O245        O  0.30835534  0.91355887  0.57880780    -0.56900
O246        O  0.30611003  0.01763726  0.48632826    -0.93600
O247        O  0.29491747  0.96016595  0.51103170    -0.92000
O248        O  0.33623532  0.97972516  0.64072613    -0.92400
O249        O  0.33881717  0.05308503  0.61732742    -0.91200
C250        C  0.28297393  0.99233823  0.49458721     1.17900
H251        H  0.38845691  0.92070624  0.61006420     0.33800
H252        H  0.40904555  0.06258545  0.55824470     0.44700
H253        H  0.36327553  0.95601672  0.45674231     0.38200
H254        H  0.51546369  0.94072352  0.51448485     0.34700
H255        H  0.40489008  0.04827199  0.66877604     0.26500
H256        H  0.54653151  0.04069542  0.49527581     0.32400
H257        H  0.53187661  0.94606574  0.44898949     0.38300
H258        H  0.33989736  0.98811821  0.66704856     0.32800
H259        H  0.29204962  0.89638730  0.56531338     0.31700
H260        H  0.32527159  0.86427547  0.50056439     0.33300
H261        H  0.39736131  0.91191230  0.40944071     0.32300
H262        H  0.33613994  0.06763570  0.59313635     0.36300
H263        H  0.33837633  0.09939505  0.51556490     0.29000
H264        H  0.53226622  0.86938305  0.54501544     0.33300
H265        H  0.48647410  0.86457106  0.47250786     0.36100
H266        H  0.32282259  0.89709738  0.59850106     0.28700
H267        H  0.33151399  0.09587372  0.47153653     0.41600
H268        H  0.48641707  0.07133943  0.59425061     0.31700
H269        H  0.44520529  0.04280971  0.64646086     0.39300
H270        H  0.40632586  0.88017922  0.44060917     0.31100
H271        H  0.55537870  0.99608644  0.49751863     0.31200
H272        H  0.49744191  0.84423050  0.54659391     0.31400
C273        C  0.26222423  0.43283768  0.46186160    -0.05000
C274        C  0.23447777  0.41447367  0.44173338     0.09100
C275        C  0.24756122  0.39262470  0.41003246    -0.02400
C276        C  0.28912611  0.38404899  0.40235724    -0.00700
C277        C  0.31881927  0.39714423  0.42692070    -0.04300
C278        C  0.30299415  0.42750398  0.45203611     0.02700
C279        C  0.19115210  0.42168520  0.45255948     0.09600
C280        C  0.21817370  0.37758864  0.38609766     0.35500
C281        C  0.32456399  0.45911079  0.46220416     0.38900
C282        C  0.16507276  0.44948915  0.43277548    -0.04700
C283        C  0.12594952  0.46050284  0.44629738     0.02500
C284        C  0.11263573  0.44381266  0.47976479    -0.04300
C285        C  0.13854142  0.41560060  0.49920807    -0.00500
C286        C  0.17764140  0.40475135  0.48584381    -0.03100
C287        C  0.17877817  0.46700752  0.39864684     0.36200
C288        C  0.12483487  0.39772536  0.53320055     0.39800
C289        C  0.09907445  0.48814317  0.42507163     0.38900
C290        C  0.20415235  0.37656433  0.50685991     0.35900
C291        C  0.24801466  0.46003578  0.49106389     0.36600
C292        C  0.29965368  0.36123811  0.36921129     0.39800
N293        N  0.07786431  0.51016561  0.40782391    -0.38300
N294        N  0.18989060  0.48064269  0.37130369    -0.39800
N295        N  0.11371427  0.38349273  0.56021511    -0.37600
N296        N  0.22489636  0.35420506  0.52417862    -0.40000
N297        N  0.19489784  0.36576883  0.36672752    -0.39800
N298        N  0.30508771  0.34386092  0.34168478    -0.37400
N299        N  0.33956855  0.48566815  0.47049924    -0.38400
N300        N  0.23647826  0.48177008  0.51406961    -0.40100
C301        C  0.41982794  0.36352907  0.32624314    -0.05000
C302        C  0.41247668  0.39907551  0.30790403     0.09100
C303        C  0.38508537  0.42773613  0.32378210    -0.02400
C304        C  0.36835101  0.42232740  0.35996601    -0.00700
C305        C  0.37755397  0.38665823  0.38034917    -0.04300
C306        C  0.39784443  0.35602122  0.35860463     0.02700
C307        C  0.42418322  0.40221015  0.26738018     0.09600
C308        C  0.37404899  0.46290896  0.30243517     0.35500
C309        C  0.38819513  0.31722357  0.36204877     0.38900
C310        C  0.40116778  0.38609783  0.24004481    -0.04700
C311        C  0.40997924  0.38933068  0.20144899     0.02500
C312        C  0.44022653  0.41173366  0.18911214    -0.04300
C313        C  0.46480016  0.42608228  0.21710380    -0.00500
C314        C  0.45700883  0.42079738  0.25608987    -0.03100
C315        C  0.36744776  0.36663763  0.25180034     0.36200
C316        C  0.49770282  0.44689051  0.20649524     0.39800
C317        C  0.38744886  0.36871739  0.17515659     0.38900
C318        C  0.48261281  0.43477380  0.28449607     0.35900
C319        C  0.44672236  0.33310977  0.30922044     0.36600
C320        C  0.34097678  0.45376819  0.37410089     0.39800
N321        N  0.36886990  0.35193376  0.15510911    -0.38300
N322        N  0.34061211  0.35126073  0.26120211    -0.39800
N323        N  0.52419176  0.46342444  0.19854072    -0.37600
N324        N  0.50366390  0.44595882  0.30660014    -0.40000
N325        N  0.36520622  0.49073327  0.28517037    -0.39800
N326        N  0.31845309  0.47980152  0.38230250    -0.37400
N327        N  0.37927047  0.28659387  0.36343742    -0.38400
N328        N  0.46814187  0.30893189  0.29560998    -0.40100
C329        C  0.42214236  0.18992446  0.43722530    -0.05000
C330        C  0.41733542  0.21750007  0.46609490     0.09100
C331        C  0.42401746  0.20613300  0.50424542    -0.02400
C332        C  0.43256938  0.16705275  0.51372543    -0.00700
C333        C  0.43581498  0.13937401  0.48489621    -0.04300
C334        C  0.43176680  0.15101638  0.44661957     0.02700
C335        C  0.40392576  0.25849751  0.45656819     0.09600
C336        C  0.42090138  0.23469106  0.53374902     0.35500
C337        C  0.43667652  0.12273811  0.41684742     0.38900
C338        C  0.36346038  0.27270766  0.45829946    -0.04700
C339        C  0.35004602  0.31137063  0.44866807     0.02500
C340        C  0.37779146  0.33773469  0.43723943    -0.04300
C341        C  0.41974228  0.32198633  0.43885281    -0.00500
C342        C  0.43189565  0.28300087  0.44731926    -0.03100
C343        C  0.33545736  0.24682258  0.47094249     0.36200
C344        C  0.45238674  0.34383560  0.43032464     0.39800
C345        C  0.30759936  0.32153717  0.45324218     0.38900
C346        C  0.47390264  0.26736054  0.44614404     0.35900
C347        C  0.41620337  0.20107047  0.39782614     0.36600
C348        C  0.43498398  0.15523811  0.55321711     0.39800
N349        N  0.27346540  0.32559483  0.45830736    -0.38300
N350        N  0.31356910  0.22611015  0.48138113    -0.39800
N351        N  0.48135294  0.35750377  0.42456930    -0.37600
N352        N  0.50717419  0.25463947  0.44507844    -0.40000
N353        N  0.41853524  0.25758006  0.55717998    -0.39800
N354        N  0.43649270  0.14594446  0.58476739    -0.37400
N355        N  0.44062942  0.10034188  0.39299142    -0.38400
N356        N  0.41181572  0.20845459  0.36597991    -0.40100
C357        C  0.40037827  0.23566295  0.10278213    -0.05000
C358        C  0.38497510  0.21375331  0.07406769     0.09100
C359        C  0.38035687  0.22893832  0.03694732    -0.02400
C360        C  0.38988559  0.26604814  0.02890092    -0.00700
C361        C  0.40649274  0.28740518  0.05731844    -0.04300
C362        C  0.41291183  0.27147080  0.09395295     0.02700
C363        C  0.37606382  0.17374170  0.08242045     0.09600
C364        C  0.36578408  0.20627051  0.00700767     0.35500
C365        C  0.43497618  0.29059000  0.12176283     0.38900
C366        C  0.33689518  0.16418660  0.08102258    -0.04700
C367        C  0.32897475  0.12589729  0.08715302     0.02500
C368        C  0.35966751  0.09704069  0.10181198    -0.04300
C369        C  0.39921313  0.10906553  0.10441723    -0.00500
C370        C  0.40727443  0.14534716  0.09156750    -0.03100
C371        C  0.30444985  0.19429691  0.07276292     0.36200
C372        C  0.43240864  0.08702228  0.12373059     0.39800
C373        C  0.28962225  0.11855359  0.07518501     0.38900
C374        C  0.44835712  0.15398135  0.08880949     0.35900
C375        C  0.40314555  0.22151406  0.14153652     0.36600
C376        C  0.38151728  0.28259093  0.99154461     0.39800
N377        N  0.25779323  0.11586205  0.06398094    -0.38300
N378        N  0.27888092  0.21841867  0.06605787    -0.39800
N379        N  0.46110403  0.07344164  0.13907772    -0.37600
N380        N  0.48108582  0.16058082  0.08665010    -0.40000
N381        N  0.35385792  0.18803470  0.98342768    -0.39800
N382        N  0.37446868  0.29571886  0.96176591    -0.37400
N383        N  0.45341121  0.30528295  0.14372853    -0.38400
N384        N  0.40527275  0.21056845  0.17257131    -0.40100
C385        C  0.37034408  0.07307380  0.22464925    -0.05000
C386        C  0.37024979  0.03655642  0.24027060     0.09100
C387        C  0.36200974  0.00654977  0.21700875    -0.02400
C388        C  0.35456593  0.01261839  0.17769981    -0.00700
C389        C  0.35850763  0.04888107  0.15952892    -0.04300
C390        C  0.36321904  0.07988792  0.18548896     0.02700
C391        C  0.37756232  0.03005619  0.28191484     0.09600
C392        C  0.36283521  0.96858783  0.23376092     0.35500
C393        C  0.35498978  0.12009534  0.17553584     0.38900
C394        C  0.34524141  0.02764431  0.30686388    -0.04700
C395        C  0.35230664  0.02063157  0.34587758     0.02500
C396        C  0.39181458  0.01639046  0.36031729    -0.04300
C397        C  0.42395418  0.02062622  0.33547890    -0.00500
C398        C  0.41680851  0.02734018  0.29646819    -0.03100
C399        C  0.30460952  0.03280083  0.29242662     0.36200
C400        C  0.46433290  0.01954219  0.35011812     0.39800
C401        C  0.31890297  0.01667423  0.37091808     0.38900
C402        C  0.44982964  0.03201418  0.27123376     0.35900
C403        C  0.37620008  0.10442520  0.24987084     0.36600
C404        C  0.34365351  0.97997799  0.15735734     0.39800
N405        N  0.29241034  0.01359870  0.39106725    -0.38300
N406        N  0.27209298  0.03704653  0.28116524    -0.39800
N407        N  0.49658454  0.01912342  0.36155586    -0.37600
N408        N  0.47610068  0.03612402  0.25116058    -0.40000
N409        N  0.36394705  0.93846145  0.24734628    -0.39800
N410        N  0.33456780  0.95202367  0.14491346    -0.37400
N411        N  0.34751022  0.15256697  0.16985899    -0.38400
N412        N  0.38071570  0.12932133  0.26994279    -0.40100
C413        C  0.23589636  0.04957501  0.11120719    -0.05000
C414        C  0.23182989  0.02683521  0.07931916     0.09100
C415        C  0.26611031  0.00930634  0.06166783    -0.02400
C416        C  0.30410817  0.01232114  0.07703846    -0.00700
C417        C  0.31034661  0.04149589  0.10433270    -0.04300
C418        C  0.27435999  0.05727711  0.12364459     0.02700
C419        C  0.19188553  0.01640760  0.06707210     0.09600
C420        C  0.26218677  0.98560171  0.02861648     0.35500
C421        C  0.27486358  0.08331680  0.15507072     0.38900
C422        C  0.17351820  0.03191739  0.03344893    -0.04700
C423        C  0.13828999  0.01860015  0.01967984     0.02500
C424        C  0.12006218  0.99105464  0.04061063    -0.04300
C425        C  0.13949097  0.97454615  0.07352907    -0.00500
C426        C  0.17507482  0.98725282  0.08670328    -0.03100
C427        C  0.19052183  0.06231577  0.01365049     0.36200
C428        C  0.12350772  0.94352915  0.09338906     0.39800
C429        C  0.12110167  0.03336531  0.98407614     0.38900
C430        C  0.19452092  0.97053551  0.12071578     0.35900
C431        C  0.19983950  0.06713928  0.12959443     0.36600
C432        C  0.33296009  0.97954749  0.06903634     0.39800
N433        N  0.10841180  0.04509879  0.95521894    -0.38300
N434        N  0.20406831  0.08680907  0.99819478    -0.39800
N435        N  0.11133724  0.91849458  0.10924367    -0.37600
N436        N  0.21027845  0.95774832  0.14792391    -0.40000
N437        N  0.25936888  0.96697561  0.00216149    -0.39800
N438        N  0.35372001  0.95199644  0.06192269    -0.37400
N439        N  0.27205136  0.10424400  0.18025136    -0.38400
N440        N  0.17083309  0.08114667  0.14374495    -0.40100
C441        C  0.00149316  0.43240216  0.29336579    -0.05000
C442        C  0.00719882  0.39346307  0.28344355     0.09100
C443        C  0.00264564  0.36550852  0.31155446    -0.02400
C444        C  0.99078299  0.37642318  0.34877277    -0.00700
C445        C  0.98403232  0.41566472  0.35867769    -0.04300
C446        C  0.99006436  0.44346935  0.33057544     0.02700
C447        C  0.01407831  0.38221039  0.24256139     0.09600
C448        C  0.00953593  0.32532376  0.30192406     0.35500
C449        C  0.98500547  0.48379023  0.33961129     0.38900
C450        C  0.05179151  0.38156967  0.22575940    -0.04700
C451        C  0.05772586  0.37220091  0.18689491     0.02500
C452        C  0.02453097  0.36597132  0.16232167    -0.04300
C453        C  0.98741864  0.36266882  0.18196817    -0.00500
C454        C  0.98235201  0.37190488  0.22084057    -0.03100
C455        C  0.08526501  0.38931749  0.24930302     0.36200
C456        C  0.95235531  0.35160712  0.16330534     0.39800
C457        C  0.09929184  0.36437622  0.17558554     0.38900
C458        C  0.94324689  0.37291468  0.23848538     0.35900
C459        C  0.00692428  0.46137786  0.26501412     0.36600
C460        C  0.98345940  0.34700882  0.37606296     0.39800
N461        N  0.13285014  0.35779206  0.16813441    -0.38300
N462        N  0.11209458  0.39532499  0.26787620    -0.39800
N463        N  0.92252964  0.34276610  0.15217283    -0.37600
N464        N  0.91222533  0.37412033  0.25270570    -0.40000
N465        N  0.01499172  0.29322687  0.29442322    -0.39800
N466        N  0.97752333  0.32334590  0.39755355    -0.37400
N467        N  0.98102247  0.51612893  0.34610749    -0.38400
N468        N  0.01139374  0.48477195  0.24273878    -0.40100
C469        C  0.12353354  0.40597409  0.08371228    -0.05000
C470        C  0.14582278  0.37713415  0.06300407     0.09100
C471        C  0.13205098  0.34124187  0.06102201    -0.02400
C472        C  0.09768983  0.33300444  0.08140657    -0.00700
C473        C  0.07227766  0.36257656  0.10108173    -0.04300
C474        C  0.08700531  0.39962427  0.10129846     0.02700
C475        C  0.18609483  0.38327146  0.04655757     0.09600
C476        C  0.15365903  0.31235098  0.03704005     0.35500
C477        C  0.06711759  0.43167450  0.12220145     0.38900
C478        C  0.22117754  0.36342712  0.06233942    -0.04700
C479        C  0.25909045  0.37026243  0.04898254     0.02500
C480        C  0.26308505  0.39941291  0.02140405    -0.04300
C481        C  0.22779325  0.41798676  0.00430358    -0.00500
C482        C  0.18961375  0.40948589  0.01642762    -0.03100
C483        C  0.21845638  0.33692636  0.09380637     0.36200
C484        C  0.23030038  0.44736719  0.97574541     0.39800
C485        C  0.29387547  0.34709193  0.06471182     0.38900
C486        C  0.15372550  0.42887064  0.99891391     0.35900
C487        C  0.13908566  0.44248555  0.08765184     0.36600
C488        C  0.09040229  0.29355418  0.07933279     0.39800
N489        N  0.32067732  0.32814095  0.07825428    -0.38300
N490        N  0.21642642  0.31575865  0.11880029    -0.39800
N491        N  0.23203218  0.47092284  0.95295466    -0.37600
N492        N  0.12497553  0.44456563  0.98530650    -0.40000
N493        N  0.17074810  0.28934391  0.01802303    -0.39800
N494        N  0.08816169  0.26132078  0.07544081    -0.37400
N495        N  0.05411481  0.45843713  0.13885387    -0.38400
N496        N  0.15179269  0.47140223  0.09045759    -0.40100
C497        C  0.97544699  0.27126983  0.07701612    -0.05000
C498        C  0.99569420  0.23987535  0.09631829     0.09100
C499        C  0.02111427  0.24657156  0.12641654    -0.02400
C500        C  0.03032688  0.28413245  0.13413020    -0.00700
C501        C  0.01358558  0.31684786  0.11167758    -0.04300
C502        C  0.98124896  0.30905344  0.08690244     0.02700
C503        C  0.98793908  0.19980173  0.08653091     0.09600
C504        C  0.03963190  0.21403342  0.14836679     0.35500
C505        C  0.94904506  0.33778135  0.07541790     0.38900
C506        C  0.00668127  0.18103061  0.05492001    -0.04700
C507        C  0.99947564  0.14341040  0.04593025     0.02500
C508        C  0.97246819  0.12461121  0.06769744    -0.04300
C509        C  0.95292598  0.14374383  0.09871025    -0.00500
C510        C  0.96087181  0.18102328  0.10824452    -0.03100
C511        C  0.03286883  0.20071950  0.03120817     0.36200
C512        C  0.92402570  0.12534312  0.12037901     0.39800
C513        C  0.02039102  0.12372699  0.01457706     0.38900
C514        C  0.94069076  0.20057864  0.14003042     0.35900
C515        C  0.94664687  0.26456144  0.04783635     0.36600
C516        C  0.05901476  0.28689965  0.16428632     0.39800
N517        N  0.03727946  0.10791550  0.98972922    -0.38300
N518        N  0.05339809  0.21650746  0.01193729    -0.39800
N519        N  0.90093737  0.11067195  0.13767822    -0.37600
N520        N  0.92487551  0.21656039  0.16534048    -0.40000
N521        N  0.05431036  0.18808424  0.16581807    -0.39800
N522        N  0.08165500  0.28594762  0.18907246    -0.37400
N523        N  0.92211564  0.35953638  0.06654442    -0.38400
N524        N  0.92377866  0.25925447  0.02457230    -0.40100
C525        C  0.93223768  0.14430446  0.48245646    -0.05000
C526        C  0.95057088  0.17169242  0.46241506     0.09100
C527        C  0.97951772  0.16043990  0.43526883    -0.02400
C528        C  0.98871077  0.12155070  0.42602733    -0.00700
C529        C  0.96977887  0.09196188  0.44520967    -0.04300
C530        C  0.94299057  0.10490935  0.47581282     0.02700
C531        C  0.94223024  0.21278286  0.47217593     0.09600
C532        C  0.99913875  0.18977365  0.41595792     0.35500
C533        C  0.92999402  0.08006378  0.50497525     0.38900
C534        C  0.96787535  0.22848887  0.49759683    -0.04700
C535        C  0.96173684  0.26761943  0.50551705     0.02500
C536        C  0.93190271  0.29171161  0.48582325    -0.04300
C537        C  0.90620855  0.27605089  0.46030610    -0.00500
C538        C  0.91060555  0.23632445  0.45443650    -0.03100
C539        C  0.00113106  0.20446306  0.51499559     0.36200
C540        C  0.87650011  0.30075169  0.43890394     0.39800
C541        C  0.98494310  0.28266909  0.53530075     0.38900
C542        C  0.88273244  0.21979924  0.43009608     0.35900
C543        C  0.90334006  0.15710768  0.51163297     0.36600
C544        C  0.01524531  0.11416349  0.39399494     0.39800
N545        N  0.00296108  0.29417405  0.55968211    -0.38300
N546        N  0.02794064  0.18547581  0.52854978    -0.39800
N547        N  0.85294442  0.32017234  0.42139264    -0.37600
N548        N  0.85978317  0.20712323  0.41102755    -0.40000
N549        N  0.01442272  0.21349869  0.40102137    -0.39800
N550        N  0.03616401  0.11220748  0.36795832    -0.37400
N551        N  0.92018374  0.06213809  0.53014199    -0.38400
N552        N  0.88040175  0.16740615  0.53480295    -0.40100
C553        C  0.17698262  0.98057831  0.45990372    -0.05000
C554        C  0.15819913  0.01857948  0.46118078     0.09100
C555        C  0.18040538  0.04783382  0.47264730    -0.02400
C556        C  0.21990901  0.03895658  0.48595982    -0.00700
C557        C  0.23959818  0.00102976  0.48390259    -0.04300
C558        C  0.21768856  0.97195545  0.47023407     0.02700
C559        C  0.11431446  0.02787211  0.45278108     0.09600
C560        C  0.16210232  0.08733314  0.47109226     0.35500
C561        C  0.23677755  0.93312327  0.46592985     0.38900
C562        C  0.08797427  0.04082654  0.48176995    -0.04700
C563        C  0.04677733  0.05056842  0.47434043     0.02500
C564        C  0.02926203  0.04279012  0.43807783    -0.04300
C565        C  0.05788308  0.03228006  0.40819546    -0.00500
C566        C  0.09959097  0.02603968  0.41582233    -0.03100
C567        C  0.10336544  0.04321080  0.52018674     0.36200
C568        C  0.04736317  0.03057766  0.36850290     0.39800
C569        C  0.02362717  0.06598754  0.50643684     0.38900
C570        C  0.12827357  0.01974367  0.38510222     0.35900
C571        C  0.15441471  0.95025989  0.44783173     0.36600
C572        C  0.23826348  0.06880132  0.50471621     0.39800
N573        N  0.00914270  0.07849604  0.53402448    -0.38300
N574        N  0.11536374  0.04540295  0.55072798    -0.39800
N575        N  0.04148537  0.02930154  0.33624419    -0.37600
N576        N  0.15129797  0.01538934  0.36079001    -0.40000
N577        N  0.14709313  0.11863402  0.46971031    -0.39800
N578        N  0.25077414  0.09352451  0.52032350    -0.37400
N579        N  0.25143283  0.90197118  0.46222350    -0.38400
N580        N  0.13660635  0.92601968  0.43801191    -0.40100
C581        C  0.90472763  0.99208878  0.26219374    -0.05000
C582        C  0.93272271  0.01601289  0.27471436     0.09100
C583        C  0.95487881  0.03440768  0.24787111    -0.02400
C584        C  0.95011680  0.02817102  0.20896952    -0.00700
C585        C  0.92437441  0.00171382  0.19608117    -0.04300
C586        C  0.90086902  0.98452940  0.22313693     0.02700
C587        C  0.93928826  0.02267186  0.31608876     0.09600
C588        C  0.98294865  0.06002344  0.26029674     0.35500
C589        C  0.87334006  0.95826380  0.21150188     0.38900
C590        C  0.95974054  0.99405818  0.33895421    -0.04700
C591        C  0.97192271  0.00215772  0.37617097     0.02500
C592        C  0.96561027  0.04038242  0.39137258    -0.04300
C593        C  0.94084530  0.06810963  0.36794280    -0.00500
C594        C  0.92851337  0.05897235  0.33112411    -0.03100
C595        C  0.97051976  0.95631164  0.32303391     0.36200
C596        C  0.92325875  0.10535157  0.38057981     0.39800
C597        C  0.99450875  0.97050960  0.39617451     0.38900
C598        C  0.90412978  0.08732199  0.30790293     0.35900
C599        C  0.87988185  0.97509185  0.28951924     0.36600
C600        C  0.97204043  0.04970086  0.18260204     0.39800
N601        N  0.01262118  0.94326008  0.40866621    -0.38300
N602        N  0.97911909  0.92630852  0.31032839    -0.39800
N603        N  0.90739624  0.13509165  0.38872839    -0.37600
N604        N  0.88499588  0.10976997  0.28926648    -0.40000
N605        N  0.00495086  0.08082966  0.26994246    -0.39800
N606        N  0.99012813  0.06682306  0.16216172    -0.37400
N607        N  0.85099724  0.93735576  0.20296647    -0.38400
N608        N  0.85987644  0.96127949  0.31096201    -0.40100
C609        C  0.47823407  0.95605498  0.98268581    -0.05000
C610        C  0.45910613  0.94718240  0.01637731     0.09100
C611        C  0.45574403  0.90819384  0.02390247    -0.02400
C612        C  0.47473888  0.87916093  0.99994901    -0.00700
C613        C  0.49463464  0.88917118  0.96552369    -0.04300
C614        C  0.48468879  0.92805082  0.95486576     0.02700
C615        C  0.43797442  0.97843282  0.04079002     0.09600
C616        C  0.43322592  0.89756118  0.05658117     0.35500
C617        C  0.45886314  0.93632791  0.92222339     0.38900
C618        C  0.40780841  0.00533021  0.02543356    -0.04700
C619        C  0.38576088  0.03263304  0.04877136     0.02500
C620        C  0.38749186  0.02925627  0.08964499    -0.04300
C621        C  0.42081474  0.00347184  0.10434615    -0.00500
C622        C  0.44640832  0.98004663  0.07969318    -0.03100
C623        C  0.39619437  0.00273815  0.98589639     0.36200
C624        C  0.43245345  0.00146412  0.14387423     0.39800
C625        C  0.35793142  0.06097501  0.02925466     0.38900
C626        C  0.48213992  0.95719434  0.09422685     0.35900
C627        C  0.48515443  0.99482325  0.97341633     0.36600
C628        C  0.47139818  0.84019738  0.01193266     0.39800
N629        N  0.33684970  0.08260248  0.01143972    -0.38300
N630        N  0.38656066  0.00100522  0.95453942    -0.39800
N631        N  0.44422450  0.99928492  0.17475566    -0.37600
N632        N  0.51071752  0.93896238  0.10537664    -0.40000
N633        N  0.41574198  0.88836453  0.08260799    -0.39800
N634        N  0.46774796  0.80987046  0.02320170    -0.37400
N635        N  0.43746309  0.94344306  0.89676443    -0.38400
N636        N  0.49057030  0.02579067  0.96582853    -0.40100
C637        C  0.46682377  0.68276143  0.93320884    -0.05000
C638        C  0.48004121  0.70446063  0.96323765     0.09100
C639        C  0.48072176  0.68934477  0.00049676    -0.02400
C640        C  0.47181501  0.65177582  0.00709306    -0.00700
C641        C  0.45833195  0.63022490  0.97709686    -0.04300
C642        C  0.45342142  0.64700293  0.94069729     0.02700
C643        C  0.49294675  0.74329804  0.95596501     0.09600
C644        C  0.49052923  0.71244820  0.03221084     0.35500
C645        C  0.43102770  0.62940889  0.91207344     0.38900
C646        C  0.46523534  0.77378223  0.94337176    -0.04700
C647        C  0.47702983  0.81041463  0.93707035     0.02500
C648        C  0.51677945  0.81875541  0.94640792    -0.04300
C649        C  0.54495788  0.78655708  0.95806011    -0.00500
C650        C  0.53282654  0.74959161  0.96233093    -0.03100
C651        C  0.42358706  0.76794281  0.93860447     0.36200
C652        C  0.58725592  0.78860580  0.96361702     0.39800
C653        C  0.44701614  0.83947282  0.92146378     0.38900
C654        C  0.56187626  0.71726402  0.97309002     0.35900
C655        C  0.46749327  0.69688171  0.89451888     0.36600
C656        C  0.47742881  0.63517604  0.04477588     0.39800
N657        N  0.42218921  0.86139126  0.90861608    -0.38300
N658        N  0.39035777  0.76349302  0.93488002    -0.39800
N659        N  0.62128539  0.78811679  0.96857926    -0.37600
N660        N  0.58492536  0.69163390  0.98188475    -0.40000
N661        N  0.49826524  0.73066220  0.05767820    -0.39800
N662        N  0.48232890  0.62224208  0.07491669    -0.37400
N663        N  0.41196367  0.61619692  0.88955484    -0.38400
N664        N  0.46820716  0.70801586  0.86360964    -0.40100
C665        C  0.61818119  0.88116513  0.00685232    -0.05000
C666        C  0.64579239  0.89100775  0.97983343     0.09100
C667        C  0.63734847  0.88605502  0.94129172    -0.02400
C668        C  0.60335500  0.86910839  0.93042537    -0.00700
C669        C  0.57052809  0.86726878  0.95607283    -0.04300
C670        C  0.58068129  0.87029506  0.99552023     0.02700
C671        C  0.68682509  0.89939837  0.99177468     0.09600
C672        C  0.66462922  0.89688493  0.91239966     0.35500
C673        C  0.55739021  0.85614632  0.02562920     0.38900
C674        C  0.72043745  0.87345024  0.98220665    -0.04700
C675        C  0.75930917  0.88259712  0.98889218     0.02500
C676        C  0.76552885  0.91589760  0.00941215    -0.04300
C677        C  0.73175975  0.94104032  0.02070702    -0.00500
C678        C  0.69263571  0.93297296  0.01170917    -0.03100
C679        C  0.71509593  0.83705450  0.96504775     0.36200
C680        C  0.73718366  0.97709048  0.03823775     0.39800
C681        C  0.79235911  0.85866350  0.97176129     0.38900
C682        C  0.65844057  0.95947311  0.02278718     0.35900
C683        C  0.62975138  0.87967408  0.04662068     0.36600
C684        C  0.60597920  0.84930788  0.89449300     0.39800
N685        N  0.81779724  0.83994343  0.95635881    -0.38300
N686        N  0.71091561  0.80817138  0.95120038    -0.39800
N687        N  0.74136873  0.00616946  0.05166041    -0.37600
N688        N  0.63134617  0.98055126  0.03224127    -0.40000
N689        N  0.68609579  0.90539700  0.88911955    -0.39800
N690        N  0.61007401  0.83343475  0.86595704    -0.37400
N691        N  0.54281749  0.84471528  0.05240802    -0.38400
N692        N  0.63915759  0.87814696  0.07819593    -0.40100
C693        C  0.50204445  0.86035972  0.83118040    -0.05000
C694        C  0.50098750  0.89914911  0.82158455     0.09100
C695        C  0.51645900  0.92383858  0.84722832    -0.02400
C696        C  0.53025421  0.91041389  0.88338692    -0.00700
C697        C  0.52352759  0.87291442  0.89688188    -0.04300
C698        C  0.51595277  0.84672092  0.86713759     0.02700
C699        C  0.48741412  0.91285687  0.78278986     0.09600
C700        C  0.51624376  0.96391658  0.83708789     0.35500
C701        C  0.52777262  0.80572347  0.86977382     0.38900
C702        C  0.44665856  0.91508733  0.77250038    -0.04700
C703        C  0.43464634  0.92395752  0.73480625     0.02500
C704        C  0.46288596  0.93331007  0.70786430    -0.04300
C705        C  0.50287572  0.93463915  0.71920496    -0.00500
C706        C  0.51556213  0.92239721  0.75583125    -0.03100
C707        C  0.41707468  0.90863623  0.80083677     0.36200
C708        C  0.52995251  0.95222090  0.69466443     0.39800
C709        C  0.39334998  0.92297815  0.72366773     0.38900
C710        C  0.55763497  0.91945062  0.76576966     0.35900
C711        C  0.48959263  0.83399039  0.80332634     0.36600
C712        C  0.55055691  0.93644168  0.90609050     0.39800
N713        N  0.36042438  0.92211146  0.71474117    -0.38300
N714        N  0.39335631  0.90387907  0.82347879    -0.39800
N715        N  0.55129933  0.96770421  0.67605124    -0.37600
N716        N  0.59110176  0.91702806  0.77401105    -0.40000
N717        N  0.51584501  0.99588612  0.82912191    -0.39800
N718        N  0.56675779  0.95767462  0.92345151    -0.37400
N719        N  0.53701864  0.77299515  0.87037743    -0.38400
N720        N  0.47937986  0.81309340  0.78125720    -0.40100
C721        C  0.88789782  0.46986949  0.01519515    -0.05000
C722        C  0.92914302  0.47164629  0.01536578     0.09100
C723        C  0.94425742  0.50040811  0.99388423    -0.02400
C724        C  0.91869105  0.52524365  0.96990410    -0.00700
C725        C  0.87587675  0.52455367  0.96963736    -0.04300
C726        C  0.86170526  0.49882587  0.99734272     0.02700
C727        C  0.95583795  0.44527347  0.04114139     0.09600
C728        C  0.98667794  0.50399345  0.99608380     0.35500
C729        C  0.82308418  0.50537416  0.01557985     0.38900
C730        C  0.98147456  0.41487861  0.02638933    -0.04700
C731        C  0.00401381  0.38813531  0.05065548     0.02500
C732        C  0.00160620  0.39070050  0.09165643    -0.04300
C733        C  0.97668922  0.42407171  0.10562996    -0.00500
C734        C  0.95389891  0.45002232  0.08052960    -0.03100
C735        C  0.98305739  0.40975170  0.98559538     0.36200
C736        C  0.97429503  0.43524062  0.14495841     0.39800
C737        C  0.02593615  0.35566751  0.03181702     0.38900
C738        C  0.92777280  0.48249301  0.09523616     0.35900
C739        C  0.87146208  0.43979917  0.03634960     0.36600
C740        C  0.93825941  0.54974232  0.94470578     0.39800
N741        N  0.04164493  0.33034787  0.01468901    -0.38300
N742        N  0.98477792  0.40502937  0.95322992    -0.39800
N743        N  0.97075216  0.44695589  0.17544505    -0.37600
N744        N  0.90664065  0.50819046  0.10655712    -0.40000
N745        N  0.02046535  0.50686342  0.99790151    -0.39800
N746        N  0.95664405  0.56788243  0.92556457    -0.37400
N747        N  0.79386545  0.50998654  0.03293209    -0.38400
N748        N  0.85678204  0.41676394  0.05298565    -0.40100
C749        C  0.85043669  0.48621788  0.75982460    -0.05000
C750        C  0.85733508  0.52181013  0.77497866     0.09100
C751        C  0.86741981  0.55081034  0.75000579    -0.02400
C752        C  0.87346149  0.54316538  0.71100785    -0.00700
C753        C  0.87179702  0.50590314  0.69696243    -0.04300
C754        C  0.85824813  0.47808597  0.72124386     0.02700
C755        C  0.85426754  0.52834904  0.81718928     0.09600
C756        C  0.87166942  0.58858938  0.76425340     0.35500
C757        C  0.85042964  0.44160860  0.70616038     0.38900
C758        C  0.88167201  0.50789563  0.84219963    -0.04700
C759        C  0.87813402  0.51245937  0.88201684     0.02500
C760        C  0.85026306  0.54233797  0.89813654    -0.04300
C761        C  0.82239474  0.56249480  0.87136797    -0.00500
C762        C  0.82329771  0.55377725  0.83225342    -0.03100
C763        C  0.91306700  0.48052673  0.82666758     0.36200
C764        C  0.79406844  0.59486210  0.88203060     0.39800
C765        C  0.90056237  0.48255499  0.90430708     0.38900
C766        C  0.79195342  0.57118262  0.80702286     0.35900
C767        C  0.83498547  0.45798898  0.78405759     0.36600
C768        C  0.88058647  0.57395389  0.68537291     0.39800
N769        N  0.91814213  0.45702020  0.92026733    -0.38300
N770        N  0.93767850  0.45844824  0.81421165    -0.39800
N771        N  0.77110412  0.62145278  0.88715934    -0.37600
N772        N  0.76698711  0.58478602  0.78683556    -0.40000
N773        N  0.87460049  0.61899924  0.77513484    -0.39800
N774        N  0.88490907  0.59896519  0.66494693    -0.37400
N775        N  0.84362084  0.41257482  0.69434385    -0.38400
N776        N  0.82264275  0.43557295  0.80350467    -0.40100
C777        C  0.73805176  0.56923051  0.98623232    -0.05000
C778        C  0.72317136  0.53467887  0.97793738     0.09100
C779        C  0.74510917  0.50871684  0.95380800    -0.02400
C780        C  0.78434010  0.51424644  0.94279969    -0.00700
C781        C  0.80116444  0.54903814  0.95179739    -0.04300
C782        C  0.77405175  0.57815727  0.96980988     0.02700
C783        C  0.68264255  0.52714281  0.99168119     0.09600
C784        C  0.72729257  0.47553878  0.94083655     0.35500
C785        C  0.77862358  0.61843601  0.96851956     0.38900
C786        C  0.64838493  0.54976164  0.97761447    -0.04700
C787        C  0.61004852  0.54231055  0.98887506     0.02500
C788        C  0.60503711  0.51034160  0.01256981    -0.04300
C789        C  0.63953207  0.48809035  0.02729282    -0.00500
C790        C  0.67809396  0.49654318  0.01698726    -0.03100
C791        C  0.65249282  0.57975923  0.94983154     0.36200
C792        C  0.63593950  0.45513253  0.05139124     0.39800
C793        C  0.57592151  0.56808804  0.97553552     0.38900
C794        C  0.71294020  0.47210395  0.03082841     0.35900
C795        C  0.71582729  0.59619946  0.01161083     0.36600
C796        C  0.80702334  0.48186302  0.92465813     0.39800
N797        N  0.54954812  0.58923954  0.96423008    -0.38300
N798        N  0.65588810  0.60360706  0.92772711    -0.39800
N799        N  0.63408243  0.42866190  0.07066094    -0.37600
N800        N  0.74009492  0.45161932  0.04169613    -0.40000
N801        N  0.71292157  0.44925336  0.93055164    -0.39800
N802        N  0.82247711  0.45451809  0.91048787    -0.37400
N803        N  0.78011130  0.65105048  0.96719473    -0.38400
N804        N  0.69825225  0.61778496  0.03176267    -0.40100
C805        C  0.86123162  0.73852521  0.99047147    -0.05000
C806        C  0.88885106  0.71073338  0.97297126     0.09100
C807        C  0.92793101  0.71956562  0.96504975    -0.02400
C808        C  0.93827159  0.75643251  0.97241463    -0.00700
C809        C  0.91062779  0.78375185  0.99017440    -0.04300
C810        C  0.87324285  0.77367913  0.00154409     0.02700
C811        C  0.87787887  0.67140562  0.96513089     0.09600
C812        C  0.95786217  0.69049167  0.95022122     0.35500
C813        C  0.84864613  0.79810738  0.02739037     0.38900
C814        C  0.87651505  0.65827852  0.92790383    -0.04700
C815        C  0.87234386  0.61960666  0.92060683     0.02500
C816        C  0.85970417  0.59465333  0.94993789    -0.04300
C817        C  0.86167313  0.60914075  0.98802433    -0.00500
C818        C  0.87189933  0.64631468  0.99511298    -0.03100
C819        C  0.88093416  0.68460309  0.89661423     0.36200
C820        C  0.85114273  0.58795692  0.02112937     0.39800
C821        C  0.88807406  0.60629540  0.88425426     0.38900
C822        C  0.87533715  0.65945900  0.03379445     0.35900
C823        C  0.82034465  0.73137907  0.99698555     0.36600
C824        C  0.97769181  0.76595164  0.96268545     0.39800
N825        N  0.90218519  0.59687499  0.85546677    -0.38300
N826        N  0.88438165  0.70536814  0.87156985    -0.39800
N827        N  0.84298869  0.57421760  0.04952084    -0.37600
N828        N  0.87780331  0.67039358  0.06441342    -0.40000
N829        N  0.98188386  0.66735371  0.93852975    -0.39800
N830        N  0.00920780  0.77346119  0.95505449    -0.37400
N831        N  0.82958024  0.81729476  0.04863514    -0.38400
N832        N  0.78743917  0.72660758  0.00225118    -0.40100
C833        C  0.39749809  0.42840982  0.51718067    -0.05000
C834        C  0.42533853  0.45257246  0.50510828     0.09100
C835        C  0.43985555  0.44950737  0.46805364    -0.02400
C836        C  0.42148715  0.42811082  0.44087111    -0.00700
C837        C  0.39083741  0.40468523  0.45179104    -0.04300
C838        C  0.38355991  0.40218102  0.49194020     0.02700
C839        C  0.43904721  0.48165313  0.53109910     0.09600
C840        C  0.47503476  0.46770974  0.45810464     0.35500
C841        C  0.35799270  0.37592156  0.50804301     0.38900
C842        C  0.45681017  0.47046238  0.56600076    -0.04700
C843        C  0.45889465  0.49814004  0.59338190     0.02500
C844        C  0.46625942  0.53532354  0.58211912    -0.04300
C845        C  0.44920297  0.54757754  0.54560244    -0.00500
C846        C  0.43258060  0.52110055  0.52213977    -0.03100
C847        C  0.46738298  0.43069324  0.57637163     0.36200
C848        C  0.45050979  0.58546593  0.52940854     0.39800
C849        C  0.43207392  0.49408086  0.62470934     0.38900
C850        C  0.41074540  0.53443644  0.48803846     0.35900
C851        C  0.38063882  0.43220991  0.55505640     0.36600
C852        C  0.43884043  0.42902021  0.40348560     0.39800
N853        N  0.40962729  0.49051001  0.64885036    -0.38300
N854        N  0.47569692  0.39894060  0.58487487    -0.39800
N855        N  0.45125668  0.61511173  0.51524081    -0.37600
N856        N  0.39362228  0.54574116  0.46096808    -0.40000
N857        N  0.50330548  0.48125560  0.44944422    -0.39800
N858        N  0.45596340  0.43073617  0.37528582    -0.37400
N859        N  0.33811053  0.35580507  0.52297445    -0.38400
N860        N  0.36709827  0.43479018  0.58515076    -0.40100
C861        C  0.60993735  0.53720325  0.62279132    -0.05000
C862        C  0.62157984  0.51470436  0.59115709     0.09100
C863        C  0.59270451  0.50930899  0.56376434    -0.02400
C864        C  0.55355501  0.52880138  0.56603153    -0.00700
C865        C  0.53907253  0.54815908  0.59989637    -0.04300
C866        C  0.56957845  0.55376692  0.62738175     0.02700
C867        C  0.66526174  0.50227485  0.58305390     0.09600
C868        C  0.60410416  0.48481547  0.53168316     0.35500
C869        C  0.56146505  0.57889558  0.65935983     0.38900
C870        C  0.68700481  0.47112515  0.60256322    -0.04700
C871        C  0.72805199  0.46030151  0.59446881     0.02500
C872        C  0.74751186  0.48041298  0.56664773    -0.04300
C873        C  0.72521566  0.51017998  0.54593287    -0.00500
C874        C  0.68480369  0.52171699  0.55472792    -0.03100
C875        C  0.66724242  0.45058342  0.63125012     0.36200
C876        C  0.74356595  0.52796888  0.51427581     0.39800
C877        C  0.75040480  0.42890742  0.61506293     0.38900
C878        C  0.66352683  0.55427994  0.53491193     0.35900
C879        C  0.64009557  0.54342071  0.65073466     0.36600
C880        C  0.53394042  0.53584110  0.52988313     0.39800
N881        N  0.76832661  0.40372867  0.63128701    -0.38300
N882        N  0.65150390  0.43431917  0.65431115    -0.39800
N883        N  0.75809961  0.54158857  0.48865122    -0.37600
N884        N  0.64682512  0.58032051  0.51899735    -0.40000
N885        N  0.61319738  0.46519570  0.50626692    -0.39800
N886        N  0.52203600  0.54121881  0.49930040    -0.37400
N887        N  0.55779071  0.59871584  0.68536640    -0.38400
N888        N  0.66442327  0.54785997  0.67288374    -0.40100
C889        C  0.48558266  0.50056618  0.70397456    -0.05000
C890        C  0.45740814  0.52505692  0.72439143     0.09100
C891        C  0.44586571  0.56211694  0.71029905    -0.02400
C892        C  0.46515181  0.57540061  0.67850992    -0.00700
C893        C  0.48543603  0.54899191  0.65216931    -0.04300
C894        C  0.49897448  0.51174428  0.66790581     0.02700
C895        C  0.44784819  0.51631857  0.76483634     0.09600
C896        C  0.41712813  0.58815818  0.73099497     0.35500
C897        C  0.52556524  0.48378965  0.64721189     0.38100
C898        C  0.46605843  0.53556796  0.79354531    -0.04700
C899        C  0.45693310  0.52970967  0.83182932     0.02500
C900        C  0.42924271  0.50374570  0.84262354    -0.04300
C901        C  0.41003417  0.48541515  0.81324275    -0.00500
C902        C  0.42005711  0.49104312  0.77469680    -0.03100
C903        C  0.49481874  0.56167141  0.78344154     0.36200
C904        C  0.37999463  0.46058883  0.82198336     0.39800
C905        C  0.47708253  0.55102841  0.85943946     0.38900
C906        C  0.40244106  0.47005726  0.74522288     0.35900
C907        C  0.50061935  0.46359771  0.72008358     0.36600
C908        C  0.47071574  0.61557264  0.67901410     0.39800
N909        N  0.49431100  0.56800938  0.88049812    -0.38300
N910        N  0.51724844  0.58267908  0.77506306    -0.39800
N911        N  0.35546110  0.44107516  0.82806471    -0.37600
N912        N  0.38862064  0.45263225  0.72208396    -0.40000
N913        N  0.39433491  0.60888841  0.74753112    -0.39800
N914        N  0.47576245  0.64741243  0.68051806    -0.37400
N915        N  0.54638748  0.46109494  0.63087488    -0.38400
N916        N  0.51267415  0.43410087  0.73290097    -0.40100
C917        C  0.41847462  0.65454463  0.60049964    -0.05000
C918        C  0.44398933  0.68207146  0.59300889     0.09100
C919        C  0.48503912  0.67095713  0.58793785    -0.02400
C920        C  0.50107702  0.63201411  0.59003904    -0.00700
C921        C  0.47643060  0.60324565  0.60123709    -0.04300
C922        C  0.43405330  0.61588388  0.60541595     0.02700
C923        C  0.42754582  0.72305810  0.58846734     0.09600
C924        C  0.51095400  0.70020722  0.57999417     0.35500
C925        C  0.40520362  0.58977137  0.61474313     0.38900
C926        C  0.41908613  0.74618636  0.62056016    -0.04700
C927        C  0.41070124  0.78612109  0.61613441     0.02500
C928        C  0.40885244  0.80261291  0.57950808    -0.04300
C929        C  0.41287043  0.77894277  0.54737227    -0.00500
C930        C  0.42281018  0.73929650  0.55185758    -0.03100
C931        C  0.41873057  0.72898827  0.65800001     0.36200
C932        C  0.40886288  0.79547259  0.50953485     0.39800
C933        C  0.40380312  0.81018182  0.64915317     0.38900
C934        C  0.42939022  0.71540007  0.51870535     0.35900
C935        C  0.37567652  0.66622168  0.60303137     0.36600
C936        C  0.54221873  0.62348145  0.57811407     0.39800
N937        N  0.39817148  0.82918989  0.67561084    -0.38300
N938        N  0.41735633  0.71563875  0.68797146    -0.39800
N939        N  0.40543095  0.80845983  0.47930972    -0.37600
N940        N  0.43467075  0.69688234  0.49189414    -0.40000
N941        N  0.53148696  0.72353185  0.57369041    -0.39800
N942        N  0.57506932  0.61845395  0.56801479    -0.37400
N943        N  0.38061660  0.57062277  0.62185691    -0.38400
N944        N  0.34159217  0.67532335  0.60497771    -0.40100
C945        C  0.87324674  0.96186246  0.56417153    -0.05000
C946        C  0.89981808  0.94596273  0.53646232     0.09100
C947        C  0.90779685  0.90621599  0.53415794    -0.02400
C948        C  0.89293786  0.88216350  0.56164747    -0.00700
C949        C  0.87181392  0.89775141  0.59493315    -0.04300
C950        C  0.86029999  0.93871513  0.59360490     0.02700
C951        C  0.92042277  0.97073570  0.50981243     0.09600
C952        C  0.93044156  0.88998709  0.50177556     0.35500
C953        C  0.83934514  0.95934256  0.62446441     0.38900
C954        C  0.96208271  0.97030501  0.51155800    -0.04700
C955        C  0.98236109  0.99037932  0.48437781     0.02500
C956        C  0.96081145  0.01862116  0.45943621    -0.04300
C957        C  0.91808270  0.01707811  0.45760518    -0.00500
C958        C  0.89919760  0.99162505  0.48078657    -0.03100
C959        C  0.98493703  0.94645302  0.53987429     0.36200
C960        C  0.89125707  0.04347110  0.43501948     0.39800
C961        C  0.02438075  0.97623592  0.48055305     0.38900
C962        C  0.85741790  0.98676020  0.47485694     0.35900
C963        C  0.85962877  0.00260025  0.56305341     0.36600
C964        C  0.89734475  0.84229221  0.55115652     0.39800
N965        N  0.05737335  0.96276661  0.47851122    -0.38300
N966        N  0.00384142  0.92708256  0.56153629    -0.39800
N967        N  0.86694089  0.06339025  0.41890885    -0.37600
N968        N  0.82426773  0.98247023  0.47020760    -0.40000
N969        N  0.94847528  0.87726272  0.47606037    -0.39800
N970        N  0.90146495  0.81133854  0.53991891    -0.37400
N971        N  0.82383884  0.97857836  0.64781918    -0.38400
N972        N  0.84748709  0.03474806  0.56222545    -0.40100
C973        C  0.85633246  0.76055246  0.61515249    -0.05000
C974        C  0.89700399  0.74841092  0.60966302     0.09100
C975        C  0.92485918  0.77413339  0.61553271    -0.02400
C976        C  0.91211048  0.81269859  0.62475173    -0.00700
C977        C  0.87009639  0.82789846  0.62447926    -0.04300
C978        C  0.84252000  0.79948308  0.62193593     0.02700
C979        C  0.91037782  0.70825940  0.59735384     0.09600
C980        C  0.96702779  0.76123526  0.60938683     0.35500
C981        C  0.79997091  0.80733426  0.62903996     0.38900
C982        C  0.90038501  0.69634321  0.56074883    -0.04700
C983        C  0.90976618  0.65790103  0.55031746     0.02500
C984        C  0.93139702  0.63173221  0.57536938    -0.04300
C985        C  0.94358614  0.64388871  0.61096141    -0.00500
C986        C  0.93178648  0.68173965  0.62253168    -0.03100
C987        C  0.87915440  0.72318443  0.53418616     0.36200
C988        C  0.96643368  0.61690308  0.63637583     0.39800
C989        C  0.89553513  0.64460707  0.51449493     0.38900
C990        C  0.93947753  0.69270160  0.66108417     0.35900
C991        C  0.82852623  0.73200713  0.61487138     0.36600
C992        C  0.94393622  0.83635337  0.63035998     0.39800
N993        N  0.88400326  0.63342586  0.48630983    -0.38300
N994        N  0.86200672  0.74415280  0.51271009    -0.39800
N995        N  0.98447506  0.59537230  0.65676176    -0.37600
N996        N  0.94532886  0.70126208  0.69197220    -0.40000
N997        N  0.00043383  0.75074198  0.60420613    -0.39800
N998        N  0.97160950  0.85240338  0.63445023    -0.37400
N999        N  0.76599327  0.81165195  0.63516727    -0.38400
N1000       N  0.80653673  0.70921296  0.61497483    -0.40100
C1001       C  0.96135233  0.87158696  0.79969448    -0.05000
C1002       C  0.93314972  0.89791486  0.78032194     0.09100
C1003       C  0.91973339  0.93330152  0.79723534    -0.02400
C1004       C  0.93292199  0.94152998  0.83370263    -0.00700
C1005       C  0.95803401  0.91380210  0.85444781    -0.04300
C1006       C  0.97328224  0.87930032  0.83701756     0.02700
C1007       C  0.91750135  0.88925103  0.74183748     0.09600
C1008       C  0.89175951  0.96114729  0.77726355     0.35500
C1009       C  0.00050677  0.85167340  0.85788613     0.38900
C1010       C  0.89071015  0.86220871  0.73761382    -0.04700
C1011       C  0.87122309  0.85813412  0.70253149     0.02500
C1012       C  0.87843160  0.88103957  0.66944324    -0.04300
C1013       C  0.90877943  0.90660763  0.67459265    -0.00500
C1014       C  0.92710436  0.91058580  0.71029681    -0.03100
C1015       C  0.88214651  0.83899240  0.77024915     0.36200
C1016       C  0.92582986  0.92738880  0.64437698     0.39800
C1017       C  0.84125078  0.83189534  0.70321628     0.38900
C1018       C  0.95707223  0.93678556  0.71495844     0.35900
C1019       C  0.97750420  0.83651416  0.78130501     0.36600
C1020       C  0.92025830  0.97863558  0.85005908     0.39800
N1021       N  0.81786759  0.81081006  0.70775096    -0.38300
N1022       N  0.87554459  0.82014950  0.79596568    -0.39800
N1023       N  0.94174032  0.94479365  0.62237918    -0.37600
N1024       N  0.98059203  0.95775103  0.71908943    -0.40000
N1025       N  0.86988048  0.98338539  0.76095710    -0.39800
N1026       N  0.91035100  0.00854615  0.86245939    -0.37400
N1027       N  0.02241900  0.82995724  0.87477352    -0.38400
N1028       N  0.99006428  0.80859535  0.76627876    -0.40100
C1029       C  0.74411782  0.91397841  0.65666703    -0.05000
C1030       C  0.72452214  0.91165915  0.62185552     0.09100
C1031       C  0.74626839  0.89603487  0.59087572    -0.02400
C1032       C  0.78737049  0.88225226  0.59432853    -0.00700
C1033       C  0.80946368  0.88520327  0.62926101    -0.04300
C1034       C  0.78607284  0.90318160  0.66020125     0.02700
C1035       C  0.68061545  0.92564428  0.61719626     0.09600
C1036       C  0.72545583  0.89314398  0.55501952     0.35500
C1037       C  0.80334886  0.91564425  0.69486614     0.38900
C1038       C  0.66828649  0.96026690  0.59779127    -0.04700
C1039       C  0.62742482  0.97119620  0.58899055     0.02500
C1040       C  0.59796642  0.94703809  0.59895398    -0.04300
C1041       C  0.61075874  0.91312052  0.62051979    -0.00500
C1042       C  0.65163069  0.90257880  0.62904830    -0.03100
C1043       C  0.69828039  0.98377396  0.58507400     0.36200
C1044       C  0.58248618  0.88820224  0.63430119     0.39800
C1045       C  0.61676152  0.00688238  0.56852125     0.38900
C1046       C  0.66418875  0.86671970  0.64864588     0.35900
C1047       C  0.72073481  0.92871323  0.68907871     0.36600
C1048       C  0.80476149  0.86266966  0.56130811     0.39800
N1049       N  0.60882085  0.03550587  0.55230550    -0.38300
N1050       N  0.72234132  0.00214311  0.57453101    -0.39800
N1051       N  0.56032929  0.86802643  0.64535994    -0.37600
N1052       N  0.67394380  0.83803022  0.66416478    -0.40000
N1053       N  0.70880128  0.89101398  0.52656527    -0.39800
N1054       N  0.81456464  0.84705685  0.53357255    -0.37400
N1055       N  0.81514794  0.92733209  0.72272272    -0.38400
N1056       N  0.70214840  0.94003765  0.71501882    -0.40100
loop_ 
_geom_bond_atom_site_label_1 
_geom_bond_atom_site_label_2 
_geom_bond_distance 
_geom_bond_site_symmetry_2 
_ccdc_geom_bond_type 
C1          C949   1.611       .  S
C1          C977   1.609       .  S
C1         C1012   1.614       .  S
C1         C1033   1.618       .  S
C2          C844   1.601       .  S
C2          C865   1.608       .  S
C2          C893   1.607       .  S
C2          C921   1.586       .  S
C3          C725   1.613       .  S
C3          C760   1.609       .  S
C3          C781   1.603       .  S
C3          C816   1.611       .  S
C4          C613   1.621       .  S
C4          C648   1.588       .  S
C4          C669   1.600       .  S
C4          C697   1.617       .  S
C5          C529   1.600       .  S
C5          C564   1.611   1_655  S
C5          C592   1.611       .  S
C5          C956   1.608       .  S
C6          C452   1.617       .  S
C6          C473   1.619       .  S
C6          C501   1.622       .  S
C6          C732   1.616       .  S
C7          C368   1.608       .  S
C7          C389   1.612       .  S
C7          C417   1.618       .  S
C7          C620   1.612       .  S
C8          C277   1.615       .  S
C8          C305   1.595       .  S
C8          C340   1.616       .  S
C8          C837   1.596       .  S
Zr9          O10   2.444       .  S
Zr9          O11   2.443       .  S
Zr9          O12   2.410       .  S
Zr9          O15   2.403       .  S
Zr9          O17   2.378       .  S
Zr9          O18   2.372   1_556  S
Zr9          O19   2.403       .  S
Zr9          O20   2.399   1_556  S
O10          H66   0.991       .  S
O10          H74   0.990       .  S
O11          C31   1.285       .  A
O12          C33   1.279       .  A
O13         Zr23   2.470       .  S
O13          C32   1.292       .  A
O14         Zr22   2.456   1_655  S
O14          C33   1.288       .  A
O15          C32   1.278   1_556  A
O16         Zr24   2.413       .  S
O16          C31   1.278   1_554  A
O17         Zr22   2.405   1_655  S
O17         Zr24   2.383   1_556  S
O18         Zr23   2.396       .  S
O18         Zr24   2.380       .  S
O18          H53   0.967       .  S
O19         Zr22   2.403   1_655  S
O19         Zr39   2.392   1_565  S
O19          H56   0.964       .  S
O20         Zr23   2.392       .  S
O20         Zr39   2.404   1_564  S
Zr21         O46   2.441   1_655  S
Zr21         O40   2.447   1_565  S
Zr21         O48   2.394       .  S
Zr21         O36   2.417   1_655  S
Zr21         O27   2.395       .  S
Zr21         O28   2.398   1_655  S
Zr21         O29   2.371   1_565  S
Zr21         O30   2.378   1_565  S
Zr22         O41   2.435       .  S
Zr22         O34   2.434       .  S
Zr22         O35   2.467   1_556  S
Zr22         O28   2.399   1_556  S
Zr22         O29   2.397   1_466  S
Zr23         O25   2.436   1_565  S
Zr23         O47   2.436       .  S
Zr23         O49   2.461       .  S
Zr23         O27   2.398       .  S
Zr23         O30   2.399   1_565  S
Zr24         O50   2.436       .  S
Zr24         O51   2.435   1_655  S
Zr24         O26   2.437   1_655  S
Zr24         O27   2.391       .  S
Zr24         O28   2.391   1_655  S
O25          H62   0.990       .  S
O26          H57   0.990       .  S
O26          H71   0.990       .  S
O28          H54   0.966       .  S
O29         Zr39   2.376   1_554  S
O30         Zr39   2.375   1_554  S
O30          H55   0.965       .  S
C31         C809   1.478       .  S
C32         C676   1.500       .  S
C33        C1005   1.477       .  S
O34          H70   0.990       .  S
O35          C37   1.290       .  A
O36          C37   1.281       .  A
C37         C424   1.491       .  S
O38         Zr39   2.436       .  S
O38          H67   0.990       .  S
Zr39         O42   2.435       .  S
Zr39         O43   2.437   1_556  S
Zr39         O44   2.439   1_556  S
O40          C45   1.286       .  A
O41          H58   0.990   1_565  S
O41          H73   0.990       .  S
O42          H59   0.990       .  S
O43          H63   0.990       .  S
O43          H72   0.990       .  S
O44          C45   1.284       .  A
C45         C508   1.492       .  S
O46          H65   0.989       .  S
O46          H69   0.990       .  S
O47          H61   0.990       .  S
O47          H68   0.990       .  S
O48          C52   1.278       .  A
O49          C52   1.290       .  A
O50          H60   0.990       .  S
O51          H64   0.990       .  S
C52         C585   1.501   1_565  S
Zr75         O76   2.437       .  S
Zr75         O77   2.432       .  S
Zr75         O78   2.432       .  S
Zr75         O81   2.399       .  S
Zr75         O83   2.373       .  S
Zr75         O84   2.385       .  S
Zr75         O85   2.400       .  S
Zr75         O86   2.406       .  S
O76         H132   0.990       .  S
O76         H140   0.988       .  S
O77          C97   1.283       .  A
O78          C99   1.285       .  A
O79         Zr89   2.439       .  S
O79          C98   1.285       .  A
O80         Zr88   2.452       .  S
O80          C99   1.288       .  A
O81          C98   1.279       .  A
O82         Zr90   2.449       .  S
O82          C97   1.287       .  A
O83         Zr88   2.398       .  S
O83         Zr90   2.373       .  S
O84         Zr89   2.404       .  S
O84         Zr90   2.368       .  S
O84         H119   0.968       .  S
O85         Zr88   2.392       .  S
O85        Zr105   2.397       .  S
O85         H122   0.965       .  S
O86         Zr89   2.401       .  S
O86        Zr105   2.396       .  S
Zr87        O112   2.440   1_655  S
Zr87        O106   2.441       .  S
Zr87        O114   2.401   1_655  S
Zr87        O102   2.406       .  S
Zr87         O93   2.404       .  S
Zr87         O94   2.409       .  S
Zr87         O95   2.374       .  S
Zr87         O96   2.372       .  S
Zr88        O107   2.436       .  S
Zr88        O100   2.435       .  S
Zr88        O101   2.427       .  S
Zr88         O94   2.410       .  S
Zr88         O95   2.397       .  S
Zr89         O91   2.435   1_655  S
Zr89        O113   2.436   1_655  S
Zr89        O115   2.469   1_655  S
Zr89         O93   2.394       .  S
Zr89         O96   2.390       .  S
Zr90        O116   2.437   1_655  S
Zr90        O117   2.435   1_655  S
Zr90         O92   2.437       .  S
Zr90         O93   2.413       .  S
Zr90         O94   2.398       .  S
O91         H128   0.990   1_455  S
O92         H123   0.990       .  S
O92         H137   0.990       .  S
O94         H120   0.958       .  S
O95        Zr105   2.374       .  S
O96        Zr105   2.374       .  S
O96         H121   0.961       .  S
C97         C753   1.497       .  S
C98         C984   1.468       .  S
C99         C872   1.492       .  S
O100        H136   0.990       .  S
O101        C103   1.282       .  A
O102        C103   1.279       .  A
C103        C536   1.469       .  S
O104       Zr105   2.435       .  S
O104        H133   0.990       .  S
Zr105       O108   2.435       .  S
Zr105       O109   2.434       .  S
Zr105       O110   2.445       .  S
O106        C111   1.285       .  A
O107        H124   0.990       .  S
O107        H139   0.990       .  S
O108        H125   0.990       .  S
O109        H129   0.990       .  S
O109        H138   0.989       .  S
O110        C111   1.287       .  A
C111        C445   1.507       .  S
O112        H131   0.988       .  S
O112        H135   0.990       .  S
O113        H127   0.990       .  S
O113        H134   0.990       .  S
O114        C118   1.277       .  A
O115        C118   1.290       .  A
O116        H126   0.990   1_455  S
O117        H130   0.990       .  S
C118        C284   1.485       .  S
Zr141       O142   2.444       .  S
Zr141       O143   2.454       .  S
Zr141       O144   2.385       .  S
Zr141       O147   2.395       .  S
Zr141       O149   2.378       .  S
Zr141       O150   2.373   1_556  S
Zr141       O151   2.406       .  S
Zr141       O152   2.393   1_556  S
O142        H198   0.989       .  S
O142        H206   0.990       .  S
O143        C163   1.288       .  A
O144        C165   1.274       .  A
O145       Zr155   2.473       .  S
O145        C164   1.292       .  A
O146       Zr154   2.496       .  S
O146        C165   1.296       .  A
O147        C164   1.278   1_556  A
O148       Zr156   2.416       .  S
O148        C163   1.279   1_554  A
O149       Zr154   2.409       .  S
O149       Zr156   2.381   1_556  S
O150       Zr155   2.394       .  S
O150       Zr156   2.378       .  S
O150        H185   0.966       .  S
O151       Zr154   2.409       .  S
O151       Zr171   2.396       .  S
O151        H188   0.966       .  S
O152       Zr155   2.393       .  S
O152       Zr171   2.393   1_554  S
Zr153       O178   2.444       .  S
Zr153       O172   2.439       .  S
Zr153       O180   2.394       .  S
Zr153       O168   2.384       .  S
Zr153       O159   2.390       .  S
Zr153       O160   2.395       .  S
Zr153       O161   2.376   1_554  S
Zr153       O162   2.376       .  S
Zr154       O173   2.434       .  S
Zr154       O166   2.435       .  S
Zr154       O167   2.506       .  S
Zr154       O160   2.401   1_556  S
Zr154       O161   2.396       .  S
Zr155       O157   2.434       .  S
Zr155       O179   2.436       .  S
Zr155       O181   2.463       .  S
Zr155       O159   2.402       .  S
Zr155       O162   2.396       .  S
Zr156       O182   2.435       .  S
Zr156       O183   2.435       .  S
Zr156       O158   2.437       .  S
Zr156       O159   2.399       .  S
Zr156       O160   2.391       .  S
O157        H194   0.990       .  S
O158        H189   0.990   1_554  S
O158        H203   0.990       .  S
O160        H186   0.966       .  S
O161       Zr171   2.377       .  S
O162       Zr171   2.376   1_554  S
O162        H187   0.965       .  S
C163        C641   1.489       .  S
C164        C788   1.499       .  S
C165        C900   1.516       .  S
O166        H202   0.990       .  S
O167        C169   1.299   1_556  A
O168        C169   1.276       .  A
C169        C480   1.512       .  S
O170       Zr171   2.435       .  S
O170        H199   0.990       .  S
Zr171       O174   2.434       .  S
Zr171       O175   2.437   1_556  S
Zr171       O176   2.423   1_556  S
O172        C177   1.285       .  A
O173        H190   0.990       .  S
O173        H205   0.990       .  S
O174        H191   0.990       .  S
O175        H195   0.990       .  S
O175        H204   0.990       .  S
O176        C177   1.281       .  A
C177        C361   1.486       .  S
O178        H197   0.989       .  S
O178        H201   0.990       .  S
O179        H193   0.990       .  S
O179        H200   0.990       .  S
O180        C184   1.276       .  A
O181        C184   1.289       .  A
O182        H192   0.990       .  S
O183        H196   0.990       .  S
C184        C312   1.508       .  S
Zr207       O208   2.444       .  S
Zr207       O209   2.426       .  S
Zr207       O210   2.419       .  S
Zr207       O213   2.415       .  S
Zr207       O215   2.373       .  S
Zr207       O216   2.381       .  S
Zr207       O217   2.394       .  S
Zr207       O218   2.399       .  S
O208        H264   0.990       .  S
O208        H272   0.990       .  S
O209        C229   1.283       .  A
O210        C231   1.281       .  A
O211       Zr221   2.433       .  S
O211        C230   1.284       .  A
O212       Zr220   2.459   1_565  S
O212        C231   1.289       .  A
O213        C230   1.282       .  A
O214       Zr222   2.431   1_565  S
O214        C229   1.283       .  A
O215       Zr220   2.387   1_565  S
O215       Zr222   2.374   1_565  S
O216       Zr221   2.392       .  S
O216       Zr222   2.366   1_565  S
O216        H251   0.966       .  S
O217       Zr220   2.393   1_565  S
O217       Zr237   2.398       .  S
O217        H254   0.966       .  S
O218       Zr221   2.396       .  S
O218       Zr237   2.396       .  S
Zr219       O244   2.436       .  S
Zr219       O238   2.436       .  S
Zr219       O246   2.435       .  S
Zr219       O234   2.414       .  S
Zr219       O225   2.398   1_545  S
Zr219       O226   2.410       .  S
Zr219       O227   2.377       .  S
Zr219       O228   2.375   1_545  S
Zr220       O239   2.436       .  S
Zr220       O232   2.433       .  S
Zr220       O233   2.435       .  S
Zr220       O226   2.408       .  S
Zr220       O227   2.399       .  S
Zr221       O223   2.435       .  S
Zr221       O245   2.439       .  S
Zr221       O247   2.449       .  S
Zr221       O225   2.387       .  S
Zr221       O228   2.395       .  S
Zr222       O248   2.436   1_545  S
Zr222       O249   2.435       .  S
Zr222       O224   2.435       .  S
Zr222       O225   2.394   1_545  S
Zr222       O226   2.399       .  S
O223        H260   0.990       .  S
O224        H255   0.990       .  S
O224        H269   0.990       .  S
O226        H252   0.966       .  S
O227       Zr237   2.376   1_545  S
O228       Zr237   2.382       .  S
O228        H253   0.967       .  S
C229        C704   1.483       .  S
C230        C928   1.473       .  S
C231       C1040   1.521       .  S
O232        H268   0.990       .  S
O233        C235   1.284       .  A
O234        C235   1.279       .  A
C235        C333   1.475       .  S
O236       Zr237   2.435       .  S
O236        H265   0.990       .  S
Zr237       O240   2.437       .  S
Zr237       O241   2.439       .  S
Zr237       O242   2.419       .  S
O238        C243   1.284       .  A
O239        H256   0.990       .  S
O239        H271   0.990   1_545  S
O240        H257   0.990       .  S
O241        H261   0.990       .  S
O241        H270   0.990       .  S
O242        C243   1.281   1_565  A
C243        C396   1.489       .  S
O244        H263   0.991       .  S
O244        H267   0.991       .  S
O245        H259   0.990       .  S
O245        H266   0.990       .  S
O246        C250   1.286   1_545  A
O247        C250   1.289       .  A
O248        H258   0.990       .  S
O249        H262   0.990       .  S
C250        C557   1.504   1_565  S
C273        C274   1.397       .  A
C273        C278   1.409       .  A
C273        C291   1.457       .  S
C274        C279   1.503       .  S
C274        C275   1.406       .  A
C275        C276   1.424       .  A
C275        C280   1.452       .  S
C276        C277   1.443       .  A
C276        C292   1.447       .  S
C277        C278   1.449       .  A
C278        C281   1.450       .  S
C279        C282   1.413       .  A
C279        C286   1.414       .  A
C280        N297   1.157       .  T
C281        N299   1.156       .  T
C282        C283   1.414       .  A
C282        C287   1.450       .  S
C283        C284   1.413       .  A
C283        C289   1.449       .  S
C284        C285   1.413       .  A
C285        C286   1.411       .  A
C285        C288   1.452       .  S
C286        C290   1.451       .  S
C287        N294   1.157       .  T
C288        N295   1.157       .  T
C289        N293   1.157       .  T
C290        N296   1.157       .  T
C291        N300   1.157       .  T
C292        N298   1.157       .  T
C301        C302   1.400       .  A
C301        C306   1.403       .  A
C301        C319   1.453       .  S
C302        C307   1.492       .  S
C302        C303   1.405       .  A
C303        C304   1.418       .  A
C303        C308   1.453       .  S
C304        C305   1.443       .  A
C304        C320   1.447       .  S
C305        C306   1.436       .  A
C306        C309   1.448       .  S
C307        C310   1.404       .  A
C307        C314   1.409       .  A
C308        N325   1.157       .  T
C309        N327   1.156       .  T
C310        C311   1.402       .  A
C310        C315   1.456       .  S
C311        C312   1.429       .  A
C311        C317   1.453       .  S
C312        C313   1.424       .  A
C313        C314   1.417       .  A
C313        C316   1.450       .  S
C314        C318   1.450       .  S
C315        N322   1.157       .  T
C316        N323   1.157       .  T
C317        N321   1.157       .  T
C318        N324   1.157       .  T
C319        N328   1.157       .  T
C320        N326   1.158       .  T
C329        C330   1.411       .  A
C329        C334   1.407       .  A
C329        C347   1.449       .  S
C330        C335   1.496       .  S
C330        C331   1.411       .  A
C331        C332   1.410       .  A
C331        C336   1.451       .  S
C332        C333   1.412       .  A
C332        C348   1.451       .  S
C333        C334   1.410       .  A
C334        C337   1.452       .  S
C335        C338   1.397       .  A
C335        C342   1.391       .  A
C336        N353   1.157       .  T
C337        N355   1.157       .  T
C338        C339   1.421       .  A
C338        C343   1.458       .  S
C339        C340   1.451       .  A
C339        C345   1.442       .  S
C340        C341   1.456       .  A
C341        C342   1.414       .  A
C341        C344   1.448       .  S
C342        C346   1.457       .  S
C343        N350   1.157       .  T
C344        N351   1.157       .  T
C345        N349   1.157       .  T
C346        N352   1.157       .  T
C347        N356   1.157       .  T
C348        N354   1.157       .  T
C357        C358   1.416       .  A
C357        C362   1.411       .  A
C357        C375   1.451       .  S
C358        C363   1.504       .  S
C358        C359   1.412       .  A
C359        C360   1.411       .  A
C359        C364   1.451       .  S
C360        C361   1.415       .  A
C360        C376   1.450   1_554  S
C361        C362   1.411       .  A
C362        C365   1.450       .  S
C363        C366   1.402       .  A
C363        C370   1.397       .  A
C364        N381   1.157   1_554  T
C365        N383   1.157       .  T
C366        C367   1.422       .  A
C366        C371   1.456       .  S
C367        C368   1.451       .  A
C367        C373   1.445       .  S
C368        C369   1.450       .  A
C369        C370   1.410       .  A
C369        C372   1.448       .  S
C370        C374   1.457       .  S
C371        N378   1.157       .  T
C372        N379   1.157       .  T
C373        N377   1.158       .  T
C374        N380   1.157       .  T
C375        N384   1.157       .  T
C376        N382   1.157       .  T
C385        C386   1.396       .  A
C385        C390   1.416       .  A
C385        C403   1.457       .  S
C386        C391   1.501       .  S
C386        C387   1.399       .  A
C387        C388   1.419       .  A
C387        C392   1.455   1_545  S
C388        C389   1.445       .  A
C388        C404   1.446   1_545  S
C389        C390   1.456       .  A
C390        C393   1.450       .  S
C391        C394   1.413       .  A
C391        C398   1.410       .  A
C392        N409   1.157       .  T
C393        N411   1.157       .  T
C394        C395   1.412       .  A
C394        C399   1.451       .  S
C395        C396   1.415       .  A
C395        C401   1.452       .  S
C396        C397   1.416       .  A
C397        C398   1.410       .  A
C397        C400   1.451       .  S
C398        C402   1.451       .  S
C399        N406   1.157       .  T
C400        N407   1.157       .  T
C401        N405   1.158       .  T
C402        N408   1.157       .  T
C403        N412   1.157       .  T
C404        N410   1.157       .  T
C413        C414   1.404       .  A
C413        C418   1.426       .  A
C413        C431   1.453       .  S
C414        C419   1.502       .  S
C414        C415   1.394       .  A
C415        C416   1.406       .  A
C415        C420   1.457   1_545  S
C416        C417   1.450       .  A
C416        C432   1.448   1_545  S
C417        C418   1.447       .  A
C418        C421   1.448       .  S
C419        C422   1.412       .  A
C419        C426   1.409   1_545  A
C420        N437   1.157       .  T
C421        N439   1.157       .  T
C422        C423   1.416       .  A
C422        C427   1.449       .  S
C423        C424   1.414   1_545  A
C423        C429   1.448   1_554  S
C424        C425   1.418       .  A
C425        C426   1.410       .  A
C425        C428   1.451       .  S
C426        C430   1.452       .  S
C427        N434   1.157   1_554  T
C428        N435   1.157       .  T
C429        N433   1.157       .  T
C430        N436   1.157       .  T
C431        N440   1.157       .  T
C432        N438   1.156       .  T
C441        C442   1.410       .  A
C441        C446   1.415   1_455  A
C441        C459   1.451       .  S
C442        C447   1.512       .  S
C442        C443   1.413       .  A
C443        C444   1.418   1_455  A
C443        C448   1.451       .  S
C444        C445   1.422       .  A
C444        C460   1.452       .  S
C445        C446   1.420       .  A
C446        C449   1.450       .  S
C447        C450   1.402       .  A
C447        C454   1.400   1_455  A
C448        N465   1.157       .  T
C449        N467   1.157       .  T
C450        C451   1.423       .  A
C450        C455   1.454       .  S
C451        C452   1.453       .  A
C451        C457   1.453       .  S
C452        C453   1.448   1_455  A
C453        C454   1.419       .  A
C453        C456   1.448       .  S
C454        C458   1.456       .  S
C455        N462   1.157       .  T
C456        N463   1.157       .  T
C457        N461   1.158       .  T
C458        N464   1.157       .  T
C459        N468   1.157       .  T
C460        N466   1.158       .  T
C469        C470   1.402       .  A
C469        C474   1.421       .  A
C469        C487   1.455       .  S
C470        C475   1.516       .  S
C470        C471   1.402       .  A
C471        C472   1.423       .  A
C471        C476   1.458       .  S
C472        C473   1.450       .  A
C472        C488   1.444       .  S
C473        C474   1.452       .  A
C474        C477   1.451       .  S
C475        C478   1.410       .  A
C475        C482   1.417       .  A
C476        N493   1.157       .  T
C477        N495   1.157       .  T
C478        C479   1.410       .  A
C478        C483   1.455       .  S
C479        C480   1.427       .  A
C479        C485   1.452       .  S
C480        C481   1.417       .  A
C481        C482   1.422       .  A
C481        C484   1.448   1_554  S
C482        C486   1.450   1_554  S
C483        N490   1.157       .  T
C484        N491   1.157       .  T
C485        N489   1.156       .  T
C486        N492   1.157       .  T
C487        N496   1.157       .  T
C488        N494   1.157       .  T
C497        C498   1.398       .  A
C497        C502   1.416       .  A
C497        C515   1.455       .  S
C498        C503   1.510       .  S
C498        C499   1.403   1_655  A
C499        C500   1.425       .  A
C499        C504   1.454       .  S
C500        C501   1.449       .  A
C500        C516   1.449       .  S
C501        C502   1.450   1_455  A
C502        C505   1.447       .  S
C503        C506   1.414   1_655  A
C503        C510   1.413       .  A
C504        N521   1.157       .  T
C505        N523   1.156       .  T
C506        C507   1.416   1_455  A
C506        C511   1.450       .  S
C507        C508   1.413       .  A
C507        C513   1.450   1_655  S
C508        C509   1.413       .  A
C509        C510   1.416       .  A
C509        C512   1.450       .  S
C510        C514   1.450       .  S
C511        N518   1.157       .  T
C512        N519   1.157       .  T
C513        N517   1.157   1_554  T
C514        N520   1.157       .  T
C515        N524   1.157       .  T
C516        N522   1.157       .  T
C525        C526   1.396       .  A
C525        C530   1.414       .  A
C525        C543   1.456       .  S
C526        C531   1.486       .  S
C526        C527   1.395       .  A
C527        C528   1.410       .  A
C527        C532   1.458       .  S
C528        C529   1.450       .  A
C528        C544   1.449   1_655  S
C529        C530   1.451       .  A
C530        C533   1.448       .  S
C531        C534   1.408       .  A
C531        C538   1.411       .  A
C532        N549   1.157   1_655  T
C533        N551   1.157       .  T
C534        C535   1.401       .  A
C534        C539   1.452   1_655  S
C535        C536   1.412       .  A
C535        C541   1.452       .  S
C536        C537   1.410       .  A
C537        C538   1.408       .  A
C537        C540   1.451       .  S
C538        C542   1.449       .  S
C539        N546   1.157       .  T
C540        N547   1.157       .  T
C541        N545   1.157   1_655  T
C542        N548   1.157       .  T
C543        N552   1.157       .  T
C544        N550   1.157       .  T
C553        C554   1.412   1_565  A
C553        C558   1.415       .  A
C553        C571   1.451       .  S
C554        C559   1.504       .  S
C554        C555   1.408       .  A
C555        C556   1.409       .  A
C555        C560   1.453       .  S
C556        C557   1.421       .  A
C556        C572   1.448       .  S
C557        C558   1.421   1_545  A
C558        C561   1.450       .  S
C559        C562   1.400       .  A
C559        C566   1.400       .  A
C560        N577   1.157       .  T
C561        N579   1.157       .  T
C562        C563   1.413       .  A
C562        C567   1.458       .  S
C563        C564   1.451       .  A
C563        C569   1.450       .  S
C564        C565   1.451       .  A
C565        C566   1.421       .  A
C565        C568   1.448       .  S
C566        C570   1.455       .  S
C567        N574   1.157       .  T
C568        N575   1.158       .  T
C569        N573   1.157       .  T
C570        N576   1.157       .  T
C571        N580   1.157       .  T
C572        N578   1.157       .  T
C581        C582   1.413   1_565  A
C581        C586   1.416       .  A
C581        C599   1.451       .  S
C582        C587   1.502       .  S
C582        C583   1.409       .  A
C583        C584   1.405       .  A
C583        C588   1.455       .  S
C584        C585   1.426       .  A
C584        C600   1.454       .  S
C585        C586   1.420   1_545  A
C586        C589   1.449       .  S
C587        C590   1.399   1_545  A
C587        C594   1.397       .  A
C588        N605   1.157   1_655  T
C589        N607   1.157       .  T
C590        C591   1.418   1_565  A
C590        C595   1.455       .  S
C591        C592   1.447       .  A
C591        C597   1.449   1_545  S
C592        C593   1.456       .  A
C593        C594   1.416       .  A
C593        C596   1.448       .  S
C594        C598   1.459       .  S
C595        N602   1.157       .  T
C596        N603   1.157       .  T
C597        N601   1.157   1_655  T
C598        N604   1.157       .  T
C599        N608   1.157       .  T
C600        N606   1.157       .  T
C609        C610   1.405   1_556  A
C609        C614   1.398       .  A
C609        C627   1.448       .  S
C610        C615   1.515       .  S
C610        C611   1.415       .  A
C611        C612   1.426   1_554  A
C611        C616   1.453       .  S
C612        C613   1.450       .  A
C612        C628   1.451   1_556  S
C613        C614   1.418       .  A
C614        C617   1.449       .  S
C615        C618   1.408   1_565  A
C615        C622   1.405       .  A
C616        N633   1.157       .  T
C617        N635   1.158       .  T
C618        C619   1.415       .  A
C618        C623   1.456   1_554  S
C619        C620   1.447       .  A
C619        C625   1.453       .  S
C620        C621   1.449       .  A
C621        C622   1.424   1_545  A
C621        C624   1.448       .  S
C622        C626   1.455       .  S
C623        N630   1.157       .  T
C624        N631   1.158   1_545  T
C625        N629   1.157       .  T
C626        N632   1.157       .  T
C627        N636   1.157   1_565  T
C628        N634   1.158       .  T
C637        C638   1.416       .  A
C637        C642   1.412       .  A
C637        C655   1.450       .  S
C638        C643   1.506       .  S
C638        C639   1.414   1_556  A
C639        C640   1.410       .  A
C639        C644   1.452       .  S
C640        C641   1.415   1_554  A
C640        C656   1.451       .  S
C641        C642   1.410       .  A
C642        C645   1.448       .  S
C643        C646   1.404       .  A
C643        C650   1.407       .  A
C644        N661   1.157       .  T
C645        N663   1.157       .  T
C646        C647   1.412       .  A
C646        C651   1.453       .  S
C647        C648   1.444       .  A
C647        C653   1.453       .  S
C648        C649   1.445       .  A
C649        C650   1.419       .  A
C649        C652   1.449       .  S
C650        C654   1.457       .  S
C651        N658   1.157       .  T
C652        N659   1.158       .  T
C653        N657   1.157       .  T
C654        N660   1.158       .  T
C655        N664   1.157       .  T
C656        N662   1.157       .  T
C665        C666   1.404   1_554  A
C665        C670   1.422   1_554  A
C665        C683   1.455       .  S
C666        C671   1.509       .  S
C666        C667   1.406       .  A
C667        C668   1.409       .  A
C667        C672   1.454       .  S
C668        C669   1.438       .  A
C668        C684   1.452       .  S
C669        C670   1.441       .  A
C670        C673   1.443   1_556  S
C671        C674   1.411       .  A
C671        C678   1.416   1_556  A
C672        N689   1.157       .  T
C673        N691   1.158       .  T
C674        C675   1.407       .  A
C674        C679   1.455       .  S
C675        C676   1.422   1_556  A
C675        C681   1.451       .  S
C676        C677   1.416       .  A
C677        C678   1.418       .  A
C677        C680   1.450       .  S
C678        C682   1.450       .  S
C679        N686   1.157       .  T
C680        N687   1.157   1_565  T
C681        N685   1.157       .  T
C682        N688   1.157       .  T
C683        N692   1.157       .  T
C684        N690   1.158       .  T
C693        C694   1.402       .  A
C693        C698   1.412       .  A
C693        C711   1.455       .  S
C694        C699   1.500       .  S
C694        C695   1.404       .  A
C695        C696   1.415       .  A
C695        C700   1.453       .  S
C696        C697   1.444       .  A
C696        C712   1.455       .  S
C697        C698   1.447       .  A
C698        C701   1.454       .  S
C699        C702   1.413       .  A
C699        C706   1.412       .  A
C700        N717   1.157       .  T
C701        N719   1.158       .  T
C702        C703   1.411       .  A
C702        C707   1.450       .  S
C703        C704   1.412       .  A
C703        C709   1.450       .  S
C704        C705   1.412       .  A
C705        C706   1.408       .  A
C705        C708   1.448       .  S
C706        C710   1.452       .  S
C707        N714   1.157       .  T
C708        N715   1.157       .  T
C709        N713   1.157       .  T
C710        N716   1.157       .  T
C711        N720   1.157       .  T
C712        N718   1.158       .  T
C721        C722   1.399       .  A
C721        C726   1.409   1_554  A
C721        C739   1.455       .  S
C722        C727   1.510       .  S
C722        C723   1.405   1_554  A
C723        C724   1.423       .  A
C723        C728   1.453       .  S
C724        C725   1.446       .  A
C724        C740   1.448       .  S
C725        C726   1.448       .  A
C726        C729   1.448   1_556  S
C727        C730   1.398       .  A
C727        C734   1.403       .  A
C728        N745   1.157   1_655  T
C729        N747   1.157       .  T
C730        C731   1.417   1_655  A
C730        C735   1.454   1_554  S
C731        C732   1.453       .  A
C731        C737   1.453       .  S
C732        C733   1.451   1_455  A
C733        C734   1.422       .  A
C733        C736   1.447       .  S
C734        C738   1.458       .  S
C735        N742   1.157       .  T
C736        N743   1.158       .  T
C737        N741   1.158       .  T
C738        N744   1.157       .  T
C739        N748   1.157       .  T
C740        N746   1.157       .  T
C749        C750   1.413       .  A
C749        C754   1.413       .  A
C749        C767   1.451       .  S
C750        C755   1.512       .  S
C750        C751   1.416       .  A
C751        C752   1.416       .  A
C751        C756   1.451       .  S
C752        C753   1.416       .  A
C752        C768   1.449       .  S
C753        C754   1.414       .  A
C754        C757   1.449       .  S
C755        C758   1.406       .  A
C755        C762   1.400       .  A
C756        N773   1.157       .  T
C757        N775   1.157       .  T
C758        C759   1.420       .  A
C758        C763   1.455       .  S
C759        C760   1.446       .  A
C759        C765   1.446       .  S
C760        C761   1.450       .  A
C761        C762   1.417       .  A
C761        C764   1.450       .  S
C762        C766   1.454       .  S
C763        N770   1.157       .  T
C764        N771   1.157       .  T
C765        N769   1.157       .  T
C766        N772   1.157       .  T
C767        N776   1.157       .  T
C768        N774   1.157       .  T
C777        C778   1.405       .  A
C777        C782   1.414       .  A
C777        C795   1.454   1_556  S
C778        C783   1.504       .  S
C778        C779   1.401       .  A
C779        C780   1.415       .  A
C779        C784   1.455       .  S
C780        C781   1.450       .  A
C780        C796   1.450       .  S
C781        C782   1.443       .  A
C782        C785   1.447       .  S
C783        C786   1.408       .  A
C783        C790   1.417   1_556  A
C784        N801   1.157       .  T
C785        N803   1.157       .  T
C786        C787   1.407       .  A
C786        C791   1.454       .  S
C787        C788   1.424   1_556  A
C787        C793   1.452       .  S
C788        C789   1.416       .  A
C789        C790   1.416       .  A
C789        C792   1.450       .  S
C790        C794   1.451       .  S
C791        N798   1.157       .  T
C792        N799   1.157       .  T
C793        N797   1.157       .  T
C794        N800   1.157       .  T
C795        N804   1.157       .  T
C796        N802   1.157       .  T
C805        C806   1.415       .  A
C805        C810   1.408   1_556  A
C805        C823   1.449       .  S
C806        C811   1.505       .  S
C806        C807   1.418       .  A
C807        C808   1.412       .  A
C807        C812   1.451       .  S
C808        C809   1.409       .  A
C808        C824   1.451       .  S
C809        C810   1.408   1_556  A
C810        C813   1.452       .  S
C811        C814   1.400       .  A
C811        C818   1.403       .  A
C812        N829   1.157       .  T
C813        N831   1.157       .  T
C814        C815   1.413       .  A
C814        C819   1.455       .  S
C815        C816   1.450       .  A
C815        C821   1.450       .  S
C816        C817   1.447       .  A
C817        C818   1.419       .  A
C817        C820   1.449   1_556  S
C818        C822   1.455   1_556  S
C819        N826   1.157       .  T
C820        N827   1.157       .  T
C821        N825   1.158       .  T
C822        N828   1.157       .  T
C823        N832   1.157   1_556  T
C824        N830   1.157   1_655  T
C833        C834   1.406       .  A
C833        C838   1.410       .  A
C833        C851   1.455       .  S
C834        C839   1.496       .  S
C834        C835   1.398       .  A
C835        C836   1.413       .  A
C835        C840   1.457       .  S
C836        C837   1.449       .  A
C836        C852   1.446       .  S
C837        C838   1.443       .  A
C838        C841   1.452       .  S
C839        C842   1.401       .  A
C839        C846   1.414       .  A
C840        N857   1.157       .  T
C841        N859   1.157       .  T
C842        C843   1.388       .  A
C842        C847   1.447       .  S
C843        C844   1.417       .  A
C843        C849   1.447       .  S
C844        C845   1.451       .  A
C845        C846   1.418       .  A
C845        C848   1.453       .  S
C846        C850   1.454       .  S
C847        N854   1.157       .  T
C848        N855   1.157       .  T
C849        N853   1.157       .  T
C850        N856   1.158       .  T
C851        N860   1.157       .  T
C852        N858   1.157       .  T
C861        C862   1.405       .  A
C861        C866   1.424       .  A
C861        C879   1.452       .  S
C862        C867   1.513       .  S
C862        C863   1.401       .  A
C863        C864   1.415       .  A
C863        C868   1.455       .  S
C864        C865   1.439       .  A
C864        C880   1.442       .  S
C865        C866   1.445       .  A
C866        C869   1.448       .  S
C867        C870   1.416       .  A
C867        C874   1.415       .  A
C868        N885   1.157       .  T
C869        N887   1.157       .  T
C870        C871   1.421       .  A
C870        C875   1.449       .  S
C871        C872   1.414       .  A
C871        C877   1.450       .  S
C872        C873   1.412       .  A
C873        C874   1.410       .  A
C873        C876   1.452       .  S
C874        C878   1.451       .  S
C875        N882   1.157       .  T
C876        N883   1.157       .  T
C877        N881   1.157       .  T
C878        N884   1.157       .  T
C879        N888   1.157       .  T
C880        N886   1.157       .  T
C889        C890   1.408       .  A
C889        C894   1.420       .  A
C889        C907   1.450       .  S
C890        C895   1.502       .  S
C890        C891   1.403       .  A
C891        C892   1.403       .  A
C891        C896   1.455       .  S
C892        C893   1.437       .  A
C892        C908   1.451       .  S
C893        C894   1.442       .  A
C894        C897   1.453       .  S
C895        C898   1.406       .  A
C895        C902   1.411       .  A
C896        N913   1.157       .  T
C897        N915   1.158       .  T
C898        C899   1.406       .  A
C898        C903   1.458       .  S
C899        C900   1.434       .  A
C899        C905   1.453       .  S
C900        C901   1.423       .  A
C901        C902   1.421       .  A
C901        C904   1.448       .  S
C902        C906   1.450       .  S
C903        N910   1.157       .  T
C904        N911   1.157       .  T
C905        N909   1.157       .  T
C906        N912   1.157       .  T
C907        N916   1.157       .  T
C908        N914   1.157       .  T
C917        C918   1.396       .  A
C917        C922   1.409       .  A
C917        C935   1.455       .  S
C918        C923   1.490       .  S
C918        C919   1.404       .  A
C919        C920   1.414       .  A
C919        C924   1.455       .  S
C920        C921   1.440       .  A
C920        C936   1.447       .  S
C921        C922   1.452       .  A
C922        C925   1.454       .  S
C923        C926   1.412       .  A
C923        C930   1.409       .  A
C924        N941   1.157       .  T
C925        N943   1.157       .  T
C926        C927   1.409       .  A
C926        C931   1.449       .  S
C927        C928   1.411       .  A
C927        C933   1.451       .  S
C928        C929   1.412       .  A
C929        C930   1.404       .  A
C929        C932   1.452       .  S
C930        C934   1.450       .  S
C931        N938   1.157       .  T
C932        N939   1.157       .  T
C933        N937   1.157       .  T
C934        N940   1.157       .  T
C935        N944   1.157       .  T
C936        N942   1.158       .  T
C945        C946   1.402       .  A
C945        C950   1.417       .  A
C945        C963   1.454   1_565  S
C946        C951   1.505       .  S
C946        C947   1.397       .  A
C947        C948   1.414       .  A
C947        C952   1.459       .  S
C948        C949   1.453       .  A
C948        C964   1.447       .  S
C949        C950   1.449       .  A
C950        C953   1.452       .  S
C951        C954   1.404       .  A
C951        C958   1.400       .  A
C952        N969   1.157       .  T
C953        N971   1.157       .  T
C954        C955   1.413       .  A
C954        C959   1.457       .  S
C955        C956   1.449   1_565  A
C955        C961   1.451   1_655  S
C956        C957   1.449       .  A
C957        C958   1.416   1_545  A
C957        C960   1.448       .  S
C958        C962   1.454       .  S
C959        N966   1.157   1_655  T
C960        N967   1.157       .  T
C961        N965   1.158       .  T
C962        N968   1.157       .  T
C963        N972   1.157       .  T
C964        N970   1.157       .  T
C973        C974   1.400       .  A
C973        C978   1.418       .  A
C973        C991   1.456       .  S
C974        C979   1.501       .  S
C974        C975   1.398       .  A
C975        C976   1.416       .  A
C975        C980   1.456       .  S
C976        C977   1.452       .  A
C976        C992   1.451       .  S
C977        C978   1.450       .  A
C978        C981   1.450       .  S
C979        C982   1.415       .  A
C979        C986   1.415       .  A
C980        N997   1.157   1_655  T
C981        N999   1.158       .  T
C982        C983   1.406       .  A
C982        C987   1.450       .  S
C983        C984   1.408       .  A
C983        C989   1.453       .  S
C984        C985   1.408       .  A
C985        C986   1.410       .  A
C985        C988   1.451       .  S
C986        C990   1.450       .  S
C987        N994   1.157       .  T
C988        N995   1.157       .  T
C989        N993   1.157       .  T
C990        N996   1.157       .  T
C991       N1000   1.157       .  T
C992        N998   1.158       .  T
C1001      C1002   1.416       .  A
C1001      C1006   1.415       .  A
C1001      C1019   1.449       .  S
C1002      C1007   1.504       .  S
C1002      C1003   1.413       .  A
C1003      C1004   1.406       .  A
C1003      C1008   1.452       .  S
C1004      C1005   1.411       .  A
C1004      C1020   1.452       .  S
C1005      C1006   1.409       .  A
C1006      C1009   1.449   1_655  S
C1007      C1010   1.399       .  A
C1007      C1014   1.398       .  A
C1008      N1025   1.157       .  T
C1009      N1027   1.157       .  T
C1010      C1011   1.417       .  A
C1010      C1015   1.456       .  S
C1011      C1012   1.451       .  A
C1011      C1017   1.450       .  S
C1012      C1013   1.455       .  A
C1013      C1014   1.418       .  A
C1013      C1016   1.447       .  S
C1014      C1018   1.459       .  S
C1015      N1022   1.158       .  T
C1016      N1023   1.157       .  T
C1017      N1021   1.157       .  T
C1018      N1024   1.157       .  T
C1019      N1028   1.157       .  T
C1020      N1026   1.157   1_565  T
C1029      C1030   1.402       .  A
C1029      C1034   1.424       .  A
C1029      C1047   1.455       .  S
C1030      C1035   1.510       .  S
C1030      C1031   1.398       .  A
C1031      C1032   1.416       .  A
C1031      C1036   1.456       .  S
C1032      C1033   1.450       .  A
C1032      C1048   1.449       .  S
C1033      C1034   1.454       .  A
C1034      C1037   1.449       .  S
C1035      C1038   1.411       .  A
C1035      C1042   1.406       .  A
C1036      N1053   1.157       .  T
C1037      N1055   1.158       .  T
C1038      C1039   1.418       .  A
C1038      C1043   1.452       .  S
C1039      C1040   1.427       .  A
C1039      C1045   1.451   1_565  S
C1040      C1041   1.432       .  A
C1041      C1042   1.414       .  A
C1041      C1044   1.454       .  S
C1042      C1046   1.452       .  S
C1043      N1050   1.157   1_565  T
C1044      N1051   1.158       .  T
C1045      N1049   1.158       .  T
C1046      N1052   1.157       .  T
C1047      N1056   1.157       .  T
C1048      N1054   1.157       .  T
