geometry optimzed in LAMMPS
_audit_creation_date              2020-11-30 
_audit_creation_method            'lammps2cif' 
_symmetry_space_group_name_H-M    'P1' 
_symmetry_Int_Tables_number       1 
_symmetry_cell_setting            triclinic 
loop_ 
_symmetry_equiv_pos_as_xyz 
  x,y,z 
_cell_length_a                    29.927463668486624 
_cell_length_b                    30.01971482041778 
_cell_length_c                    29.47703673497431 
_cell_angle_alpha                 89.78981600097005 
_cell_angle_beta                  90.02544922334125 
_cell_angle_gamma                 90.20902181064906 
loop_ 
_atom_site_label 
_atom_site_type_symbol 
_atom_site_fract_x 
_atom_site_fract_y 
_atom_site_fract_z 
_atom_site_charge 
C1          C  0.36573241  0.64697654  0.62786085    -0.00600
N2          N  0.41264822  0.56259513  0.55262691    -0.04230
N3          N  0.38256965  0.57462468  0.58324379    -0.56350
N4          N  0.44206528  0.58811746  0.44302089    -0.03910
N5          N  0.43302512  0.61806742  0.41121769    -0.58470
N6          N  0.40867655  0.55965093  0.44693339    -0.03500
N7          N  0.37613949  0.57092239  0.41855236    -0.56320
N8          N  0.44330600  0.59391650  0.54859538    -0.03180
N9          N  0.43381028  0.62778139  0.57581055    -0.58830
C10         C  0.39577592  0.61567537  0.59795655     0.97950
C11         C  0.39143986  0.60751787  0.39582697     0.97730
N12         N  0.58077495  0.55568427  0.44524441    -0.04410
N13         N  0.61414898  0.56611248  0.41765491    -0.56920
N14         N  0.55037578  0.58863154  0.54664801    -0.02530
N15         N  0.56082125  0.62018243  0.57582202    -0.58180
N16         N  0.57858552  0.55518599  0.55038417    -0.04440
N17         N  0.60748214  0.56276982  0.58357151    -0.57190
N18         N  0.54976704  0.58658032  0.44304802    -0.02170
N19         N  0.56181148  0.61815048  0.41398580    -0.58260
Mn20       Mn  0.49636780  0.59003175  0.49496765     1.18440
C21         C  0.60229926  0.60529774  0.39788855     1.00030
C22         C  0.59563685  0.60331504  0.59979594     1.00700
N23         N  0.40630031  0.45183600  0.45051113    -0.04460
N24         N  0.37450415  0.44201927  0.42086168    -0.60770
N25         N  0.44044670  0.42101769  0.55299950    -0.03260
N26         N  0.42935571  0.38905584  0.58210866    -0.61440
N27         N  0.41184993  0.45422530  0.55554566    -0.03970
N28         N  0.38184968  0.44565636  0.58729145    -0.61040
N29         N  0.43782553  0.42140452  0.44885509    -0.02860
N30         N  0.42851113  0.39105613  0.41780836    -0.61730
Mn31       Mn  0.40878195  0.50704523  0.50174825     1.10660
C32         C  0.38930625  0.40461275  0.39964308     1.01250
C33         C  0.39263899  0.40473253  0.60379406     1.01330
N34         N  0.57874452  0.44774901  0.54982155    -0.03980
N35         N  0.61163896  0.43566163  0.57718267    -0.59350
N36         N  0.54341656  0.42077170  0.44443768    -0.03290
N37         N  0.55124911  0.38985399  0.41366888    -0.56080
N38         N  0.57692381  0.44925158  0.44596031    -0.04610
N39         N  0.60868299  0.43710836  0.41744019    -0.58920
N40         N  0.54749940  0.41680402  0.54937597    -0.03590
N41         N  0.55889043  0.38322650  0.57635284    -0.56100
Mn42       Mn  0.57957177  0.50209061  0.49817260     1.20190
Mn43       Mn  0.49216718  0.41932129  0.49890007     1.10090
Cl44       Cl  0.49414369  0.50465781  0.49859262    -0.84070
C45         C  0.59927330  0.39509733  0.59371933     0.98260
C46         C  0.59230181  0.40002486  0.39690844     0.98060
C47         C  0.62874483  0.36635147  0.62614979    -0.00600
C48         C  0.36160137  0.37727382  0.36547015    -0.00600
C49         C  0.63355401  0.63553811  0.36808657    -0.00600
C50         C  0.36231498  0.63993979  0.36627339    -0.00600
C51         C  0.62198958  0.36767564  0.36958929    -0.00600
C52         C  0.36121091  0.37667201  0.63480758    -0.00600
C53         C  0.62276541  0.63124585  0.63363077    -0.00600
C54         C  0.26016849  0.24424313  0.99726498     0.02460
C55         C  0.22877580  0.27709541  0.99732756     0.02450
C56         C  0.23191165  0.99957963  0.26113917     0.02460
C57         C  0.26599157  0.00050059  0.23005827     0.02450
C58         C  0.00529513  0.24033866  0.27977940     0.02460
C59         C  0.00378454  0.27472644  0.24939864     0.02450
C60         C  0.49136309  0.27133601  0.26292828     0.02460
C61         C  0.49213217  0.23825531  0.23138581     0.02450
C62         C  0.23322698  0.23943516  0.50119057     0.02460
C63         C  0.25555394  0.28011178  0.50246469     0.02450
C64         C  0.26009766  0.51025927  0.26091488     0.02460
C65         C  0.22888536  0.51007851  0.22640114     0.02450
C66         C  0.25397127  0.77654550  0.99905391     0.02460
C67         C  0.22198221  0.74419668  0.99988011     0.02450
C68         C  0.77488851  0.26638528  0.00912802     0.02460
C69         C  0.73973126  0.23744094  0.00935295     0.02450
C70         C  0.99670063  0.24675214  0.72926932     0.02460
C71         C  0.99546291  0.28028560  0.76023961     0.02450
C72         C  0.72857955  0.49799936  0.26847669     0.02460
C73         C  0.76128323  0.49696414  0.23613420     0.02450
C74         C  0.24159404  0.51543188  0.77430277     0.02460
C75         C  0.27733328  0.51588122  0.74487553     0.02450
C76         C  0.86188454  0.62708992  0.86359541    -0.00600
N77         N  0.93789650  0.55188915  0.91727362    -0.04230
N78         N  0.90595494  0.55785478  0.88698781    -0.56350
N79         N  0.04178542  0.59099724  0.94427422    -0.03910
N80         N  0.07125416  0.62270670  0.93516362    -0.58470
N81         N  0.04070762  0.56146587  0.91138389    -0.03500
N82         N  0.06858872  0.57343365  0.87866042    -0.56320
N83         N  0.93932501  0.58538830  0.94589807    -0.03180
N84         N  0.90973389  0.61573246  0.93388266    -0.58830
C85         C  0.88875974  0.59822663  0.89701233     0.97950
C86         C  0.08849895  0.61111094  0.89439715     0.97730
N87         N  0.04478995  0.56089397  0.08515935    -0.04410
N88         N  0.07205055  0.57344194  0.11806726    -0.56920
N89         N  0.94107966  0.58840248  0.05457146    -0.02530
N90         N  0.91117000  0.61909598  0.06505207    -0.58180
N91         N  0.94243509  0.55774968  0.08649547    -0.04440
N92         N  0.91353247  0.56730925  0.11906542    -0.57190
N93         N  0.04457507  0.59094230  0.05248579    -0.02170
N94         N  0.07277987  0.62358666  0.06217797    -0.58260
Mn95       Mn  0.99180133  0.58991218  0.99916642     1.18440
C96         C  0.09002130  0.61246434  0.10324059     1.00030
C97         C  0.89378644  0.60589085  0.10557365     1.00700
N98         N  0.04791153  0.45431019  0.91158939    -0.04460
N99         N  0.07691349  0.44585680  0.87877604    -0.60770
N100        N  0.94632673  0.41779070  0.94598406    -0.03260
N101        N  0.91682317  0.38608154  0.93689763    -0.61440
N102        N  0.94525960  0.44836386  0.91403144    -0.03970
N103        N  0.91540852  0.43789935  0.88276550    -0.61040
N104        N  0.05054558  0.42366674  0.94352311    -0.02860
N105        N  0.08211813  0.39459205  0.93298877    -0.61730
Mn106      Mn  0.99309807  0.50416193  0.91270859     1.10660
C107        C  0.09895089  0.40861516  0.89232161     1.01250
C108        C  0.89740561  0.39883295  0.89715843     1.01330
N109        N  0.94507849  0.45234640  0.08467474    -0.03980
N110        N  0.91565738  0.44337851  0.11685568    -0.59350
N111        N  0.05111744  0.42435159  0.05179064    -0.03290
N112        N  0.08137199  0.39364755  0.06068131    -0.56080
N113        N  0.04825313  0.45286746  0.08549189    -0.04610
N114        N  0.07557405  0.44049302  0.11859816    -0.58920
N115        N  0.94808688  0.41900726  0.05589958    -0.03590
N116        N  0.92179375  0.38597944  0.06966057    -0.56100
Mn117      Mn  0.99526538  0.50580077  0.08626207     1.20190
Mn118      Mn  0.99905886  0.42012166  0.99936702     1.10090
Cl119      Cl  0.99508145  0.50497815  0.99942437    -0.84070
C120        C  0.90126495  0.40162778  0.10774317     0.98260
C121        C  0.09654117  0.40343979  0.10269541     0.98060
C122        C  0.87494843  0.37177820  0.14156170    -0.00600
C123        C  0.13025102  0.37965380  0.86140788    -0.00600
C124        C  0.12270737  0.63908760  0.86744959    -0.00600
C125        C  0.86317602  0.37104325  0.86913697    -0.00600
C126        C  0.86031077  0.63351325  0.13501363    -0.00600
C127        C  0.74871627  0.49753251  0.77476123     0.02460
C128        C  0.71590792  0.49881375  0.74233707     0.02450
C129        C  0.11769320  0.64355727  0.13414610    -0.00600
C130        C  0.12554364  0.37191820  0.13225986    -0.00600
C131        C  0.25713975  0.00597350  0.76832285     0.02460
C132        C  0.22443467  0.00479943  0.73617554     0.02450
C133        C  0.50131797  0.72617399  0.25583139     0.02460
C134        C  0.50122466  0.76345102  0.22861074     0.02450
C135        C  0.49338390  0.26076570  0.72346027     0.02460
C136        C  0.49446343  0.23273770  0.76052428     0.02450
C137        C  0.63099107  0.14489057  0.87350980    -0.00600
N138        N  0.54977908  0.92509138  0.94615273    -0.04230
N139        N  0.55929237  0.89508893  0.91489081    -0.56350
N140        N  0.58190515  0.95046396  0.05346891    -0.03910
N141        N  0.61442004  0.93891930  0.08166584    -0.58470
N142        N  0.55211659  0.91808784  0.05112112    -0.03500
N143        N  0.56485732  0.88398098  0.07721057    -0.56320
N144        N  0.58207734  0.95489675  0.94888246    -0.03180
N145        N  0.61461144  0.94468899  0.92041030    -0.58830
C146        C  0.60000156  0.90743576  0.89877948     0.97950
C147        C  0.60408763  0.89722116  0.09675925     0.97490
N148        N  0.54952313  0.09101701  0.05497660    -0.04410
N149        N  0.56042051  0.12323424  0.08359822    -0.56920
N150        N  0.58235048  0.06245922  0.95116446    -0.02530
N151        N  0.61487822  0.07430706  0.92301831    -0.58180
N152        N  0.55055265  0.09268070  0.95027299    -0.04440
N153        N  0.56103454  0.12500064  0.92135442    -0.57190
N154        N  0.58034570  0.05972230  0.05586576    -0.02170
N155        N  0.61219718  0.07043578  0.08517691    -0.58260
Mn156      Mn  0.58229845  0.00689912  0.00268234     1.18440
C157        C  0.59976480  0.11040409  0.10263703     1.00030
C158        C  0.60155365  0.11355926  0.90418767     1.00700
N159        N  0.44302102  0.92057434  0.05050459    -0.04460
N160        N  0.43397848  0.88824528  0.07956630    -0.60770
N161        N  0.41370355  0.95497758  0.94358036    -0.03260
N162        N  0.38355773  0.94657226  0.91157904    -0.61440
N163        N  0.44329028  0.92279339  0.94590190    -0.03970
N164        N  0.43252695  0.89105560  0.91695399    -0.61040
N165        N  0.40995527  0.94947309  0.04937871    -0.02860
N166        N  0.37747017  0.93598748  0.07716133    -0.61730
Mn167      Mn  0.49695677  0.92105312  0.99869172     1.10660
C168        C  0.39291353  0.89746211  0.09628516     1.01250
C169        C  0.39530529  0.90602580  0.89522403     1.01330
N170        N  0.44260973  0.09160405  0.94791762    -0.03980
N171        N  0.43095254  0.12352161  0.91906971    -0.59350
N172        N  0.40966472  0.05921888  0.05088449    -0.03290
N173        N  0.37628799  0.07029393  0.07811983    -0.56080
N174        N  0.44095842  0.09020835  0.05236599    -0.04610
N175        N  0.42925169  0.12226634  0.08071313    -0.58920
N176        N  0.41373286  0.05855066  0.94547006    -0.03590
N177        N  0.38351046  0.06656435  0.91373120    -0.56100
Mn178      Mn  0.49590892  0.09209344  0.00153440     1.20190
Mn179      Mn  0.41096936  0.00556364  0.99774973     1.10090
Cl180      Cl  0.49660506  0.00640829  0.00080738    -0.84070
C181        C  0.39398936  0.10751979  0.89735760     0.98260
C182        C  0.38858797  0.10981712  0.09699577     0.98060
C183        C  0.63439561  0.86806832  0.12951243    -0.00600
C184        C  0.36491431  0.87449424  0.86715035    -0.00600
C185        C  0.36191323  0.13709709  0.86881190    -0.00600
C186        C  0.63107303  0.87701645  0.87069996    -0.00600
C187        C  0.36635688  0.86632310  0.12964682    -0.00600
C188        C  0.49759446  0.73741947  0.73939011     0.02460
C189        C  0.50113069  0.77091332  0.77089680     0.02450
C190        C  0.35877799  0.13941468  0.12865801    -0.00600
C191        C  0.62947918  0.13959216  0.13505841    -0.00600
C192        C  0.98513859  0.73108330  0.24710761     0.02460
C193        C  0.98550080  0.76591427  0.27597351     0.02450
C194        C  0.72651464  0.00382400  0.23631597     0.02460
C195        C  0.75865399  0.00444851  0.26930575     0.02450
C196        C  0.71911009  0.25483967  0.49652591     0.02460
C197        C  0.75010474  0.22130386  0.49707033     0.02450
C198        C  0.23795566  0.78772990  0.49749833     0.02460
C199        C  0.26606009  0.75172504  0.49603131     0.02450
C200        C  0.86515212  0.13478277  0.36609560    -0.00600
N201        N  0.94359254  0.05698421  0.41522912    -0.04230
N202        N  0.91267913  0.06566284  0.38450811    -0.56350
N203        N  0.04865146  0.08840234  0.44475961    -0.03910
N204        N  0.08158460  0.11718494  0.43745682    -0.58470
N205        N  0.04797976  0.05782982  0.41298985    -0.03500
N206        N  0.08047966  0.06538989  0.38344849    -0.56320
N207        N  0.94375711  0.08799977  0.44655448    -0.03180
N208        N  0.91250821  0.11790960  0.43736445    -0.58830
C209        C  0.89285340  0.10385093  0.39817162     0.97950
C210        C  0.10221739  0.10196200  0.39959616     0.97730
N211        N  0.04851330  0.05694239  0.58487679    -0.04410
N212        N  0.07656208  0.06865780  0.61743981    -0.56920
N213        N  0.94790487  0.09014313  0.55486154    -0.02530
N214        N  0.92080551  0.12313522  0.56579199    -0.58180
N215        N  0.94621935  0.05852812  0.58589462    -0.04440
N216        N  0.91757770  0.06940565  0.61823944    -0.57190
N217        N  0.05090145  0.08575349  0.55114585    -0.02170
N218        N  0.08200050  0.11604734  0.55929798    -0.58260
Mn219      Mn  0.99769356  0.08904319  0.49915491     1.18440
C220        C  0.09770565  0.10559174  0.60112867     1.00030
C221        C  0.90115555  0.10952767  0.60494735     1.00700
N222        N  0.04804524  0.95226065  0.41267411    -0.04460
N223        N  0.07609319  0.94229593  0.37950567    -0.60770
N224        N  0.94929662  0.91782971  0.44292672    -0.03260
N225        N  0.92215236  0.88507643  0.43179507    -0.61440
N226        N  0.94408106  0.95136295  0.41465508    -0.03970
N227        N  0.91056739  0.94304600  0.38629877    -0.61040
N228        N  0.05112068  0.92264667  0.44559165    -0.02860
N229        N  0.08210211  0.89301623  0.43540416    -0.61730
Mn230      Mn  0.99563683  0.00475562  0.41275405     1.10660
C231        C  0.09773213  0.90513994  0.39373869     1.01250
C232        C  0.89584115  0.90170943  0.39847675     1.01330
N233        N  0.94310586  0.95101730  0.58366201    -0.03980
N234        N  0.91125707  0.94361383  0.61389777    -0.59350
N235        N  0.04842396  0.91921797  0.55479803    -0.03290
N236        N  0.07738647  0.88767773  0.56563750    -0.56080
N237        N  0.04748971  0.94985056  0.58654321    -0.04610
N238        N  0.07599432  0.93937980  0.61925975    -0.58920
N239        N  0.94420948  0.91830603  0.55392472    -0.03590
N240        N  0.91343781  0.88782511  0.56492180    -0.56100
Mn241      Mn  0.99615458  0.00388459  0.58615097     1.20190
Mn242      Mn  0.99843864  0.91839092  0.49935224     1.10090
Cl243      Cl  0.99676689  0.00392231  0.49944516    -0.84070
C244        C  0.89234424  0.90402382  0.60263787     0.98260
C245        C  0.09488371  0.90035272  0.60614072     0.98060
C246        C  0.85928581  0.87394865  0.37365376    -0.00600
C247        C  0.12476059  0.87298139  0.36257312    -0.00600
C248        C  0.12554963  0.87007624  0.63619364    -0.00600
C249        C  0.86782736  0.13799654  0.63218642    -0.00600
C250        C  0.86019440  0.87666932  0.63511119    -0.00600
C251        C  0.72044443  0.74437700  0.50544744     0.02460
C252        C  0.74985581  0.77921800  0.50704989     0.02450
C253        C  0.13612525  0.12928303  0.37148762    -0.00600
C254        C  0.12535915  0.13738101  0.63138998    -0.00600
C255        C  0.98951201  0.72651257  0.75322407     0.02460
C256        C  0.99014259  0.75711283  0.71889562     0.02450
C257        C  0.73468596  0.01324389  0.77528196     0.02460
C258        C  0.76729025  0.01197156  0.74306058     0.02450
C259        C  0.76290594  0.73236047  0.99553769     0.02460
C260        C  0.72548884  0.75871437  0.99625102     0.02450
C261        C  0.91054628  0.80712938  0.63527416     0.25490
C262        C  0.89112741  0.84274060  0.66015821    -0.22620
C263        C  0.90084604  0.84383432  0.70748828     0.20390
C264        C  0.93494231  0.81771433  0.72537783     0.25430
C265        C  0.95022166  0.78056194  0.70158168    -0.22570
C266        C  0.93485712  0.77385268  0.65730673     0.20330
F267        F  0.94337159  0.73532050  0.63516518    -0.12520
F268        F  0.90239225  0.80174360  0.59032863    -0.14890
F269        F  0.94942398  0.82547772  0.76835054    -0.14890
F270        F  0.87676820  0.86717745  0.73800910    -0.12520
C271        C  0.85852404  0.94038300  0.69599508     0.25490
C272        C  0.83493052  0.90836624  0.66947982    -0.22620
C273        C  0.78775667  0.90540671  0.67806252     0.20390
C274        C  0.76565664  0.93634814  0.70539213     0.25430
C275        C  0.78946161  0.96974375  0.72800822    -0.22570
C276        C  0.83625045  0.96960307  0.72497077     0.20330
F277        F  0.86058541  0.00021699  0.74826185    -0.12520
F278        F  0.90384398  0.94103291  0.69780759    -0.14890
F279        F  0.72032430  0.93585565  0.70596506    -0.14890
F280        F  0.76144484  0.87276114  0.66088750    -0.12520
C281        C  0.78270092  0.78256326  0.58675855     0.25490
C282        C  0.76244039  0.80412828  0.54974321    -0.22620
C283        C  0.76790396  0.85085729  0.54620602     0.20390
C284        C  0.79973946  0.87345071  0.57257063     0.25430
C285        C  0.82442424  0.85090682  0.60637895    -0.22570
C286        C  0.81061313  0.80626157  0.61635400     0.20330
F287        F  0.82374599  0.78488692  0.65472725    -0.12520
F288        F  0.77962954  0.73780061  0.59217137    -0.14890
F289        F  0.80632670  0.91762632  0.56500257    -0.14890
F290        F  0.74663621  0.87367847  0.51274270    -0.12520
C291        C  0.82491764  0.12020308  0.70793418     0.25490
C292        C  0.83707141  0.10851704  0.66272087    -0.22620
C293        C  0.81621479  0.07005042  0.64461336     0.20390
C294        C  0.78526596  0.04596608  0.66931046     0.25430
C295        C  0.78189466  0.05175373  0.71626936    -0.22570
C296        C  0.80132109  0.08995483  0.73550342     0.20330
F297        F  0.79942531  0.09734562  0.78081010    -0.12520
F298        F  0.83658799  0.15989475  0.72641690    -0.14890
F299        F  0.76318509  0.01232440  0.64812306    -0.14890
F300        F  0.82776665  0.05225307  0.60436720    -0.12520
C301        C  0.09211378  0.83112816  0.70902019     0.25490
C302        C  0.09467401  0.83616304  0.66091413    -0.22620
C303        C  0.06822521  0.80666285  0.63460431     0.20390
C304        C  0.04116665  0.77502567  0.65516427     0.25430
C305        C  0.03221695  0.77715565  0.70161866    -0.22570
C306        C  0.05840226  0.80523679  0.72863023     0.20330
F307        F  0.05099512  0.80848070  0.77390544    -0.12520
F308        F  0.12177737  0.85000161  0.73794668    -0.14890
F309        F  0.02375765  0.74218228  0.62920548    -0.14890
F310        F  0.07188913  0.80478575  0.58878358    -0.12520
C311        C  0.78591467  0.83044323  0.39364994     0.25490
C312        C  0.82802039  0.84841144  0.40749006    -0.22620
C313        C  0.84158987  0.83745074  0.45208736     0.20390
C314        C  0.82218488  0.80207083  0.47450240     0.25430
C315        C  0.77689550  0.79318752  0.46655328    -0.22570
C316        C  0.75858287  0.80787458  0.42504946     0.20330
F317        F  0.71465507  0.80248898  0.41522940    -0.12520
F318        F  0.76958385  0.83688436  0.35124587    -0.14890
F319        F  0.84326718  0.78598371  0.51189284    -0.14890
F320        F  0.86144431  0.86726266  0.47991987    -0.12520
C321        C  0.15306957  0.80128057  0.40549596     0.25490
C322        C  0.15655913  0.84746524  0.39513208    -0.22620
C323        C  0.19183671  0.87125896  0.41658278     0.20390
C324        C  0.22484571  0.84829186  0.44046890     0.25430
C325        C  0.21593474  0.80520195  0.45640559    -0.22570
C326        C  0.17712127  0.78377891  0.44154783     0.20330
F327        F  0.16398453  0.74436239  0.46022879    -0.12520
F328        F  0.12814485  0.77196490  0.38151391    -0.14890
F329        F  0.26454519  0.86854097  0.44894343    -0.14890
F330        F  0.19686017  0.91589054  0.41055884    -0.12520
C331        C  0.16588149  0.79877089  0.60323394     0.25490
C332        C  0.15838241  0.84575343  0.60368539    -0.22620
C333        C  0.18546812  0.87195594  0.57484513     0.20390
C334        C  0.21722192  0.85231780  0.54705019     0.25430
C335        C  0.21738910  0.80594662  0.53992695    -0.22570
C336        C  0.19141649  0.77927845  0.56890964     0.20330
F337        F  0.18999559  0.73438278  0.56391318    -0.12520
F338        F  0.14984494  0.77110557  0.63589794    -0.14890
F339        F  0.24846371  0.87912034  0.52809673    -0.14890
F340        F  0.18380782  0.91716798  0.57637902    -0.12520
C341        C  0.80663117  0.22823405  0.43575538     0.25490
C342        C  0.77084856  0.20459713  0.45482832    -0.22620
C343        C  0.76267008  0.16130461  0.43960638     0.20390
C344        C  0.79712990  0.13789226  0.41869364     0.25430
C345        C  0.83220368  0.16141885  0.39661517    -0.22570
C346        C  0.83198422  0.20871789  0.40148119     0.20330
F347        F  0.85357281  0.23681622  0.37280454    -0.12520
F348        F  0.81359009  0.27161520  0.44673327    -0.14890
F349        F  0.79337959  0.09290760  0.41534024    -0.14890
F350        F  0.72265203  0.14115598  0.44721811    -0.12520
C351        C  0.81707692  0.13956393  0.56158263     0.25490
C352        C  0.83480923  0.16213218  0.59958211    -0.22620
C353        C  0.81375561  0.20335862  0.60994595     0.20390
C354        C  0.79026148  0.22618139  0.57570050     0.25430
C355        C  0.77135678  0.20173628  0.53941454    -0.22570
C356        C  0.77963085  0.15575244  0.54008679     0.20330
F357        F  0.75184954  0.12578439  0.52081956    -0.12520
F358        F  0.83489100  0.10209373  0.54390359    -0.14890
F359        F  0.78808666  0.27115154  0.57821974    -0.14890
F360        F  0.81802088  0.22305305  0.65108031    -0.12520
C361        C  0.77727070  0.96733047  0.34223493     0.25490
C362        C  0.77412417  0.96430807  0.29463751    -0.22620
C363        C  0.79513882  0.92881622  0.27274527     0.20390
C364        C  0.81964336  0.89784840  0.29768719     0.25430
C365        C  0.82889459  0.90476821  0.34471919    -0.22570
C366        C  0.80528607  0.93902951  0.36665249     0.20330
F367        F  0.80939081  0.94517976  0.41209553    -0.12520
F368        F  0.75573321  0.00027742  0.36478069    -0.14890
F369        F  0.83258242  0.86070865  0.27523175    -0.14890
F370        F  0.79467497  0.92532114  0.22687945    -0.12520
C371        C  0.85739797  0.07220791  0.30533055     0.25490
C372        C  0.83740188  0.10668320  0.33099901    -0.22620
C373        C  0.79138815  0.11519554  0.32133911     0.20390
C374        C  0.76464029  0.08269473  0.30101598     0.25430
C375        C  0.78443657  0.04503096  0.28194647    -0.22570
C376        C  0.83128994  0.04254157  0.28067329     0.20330
F377        F  0.85188239  0.00956952  0.25727737    -0.12520
F378        F  0.90240230  0.06905666  0.30072212    -0.14890
F379        F  0.71957805  0.08738766  0.30196354    -0.14890
F380        F  0.77168708  0.15456506  0.33156549    -0.12520
C381        C  0.02807891  0.78907098  0.34328621     0.25490
C382        C  0.02690726  0.78457643  0.29615409    -0.22620
C383        C  0.05956945  0.80606004  0.27002628     0.20390
C384        C  0.09272320  0.83169691  0.29084064     0.25430
C385        C  0.09107012  0.84110803  0.33832488    -0.22570
C386        C  0.05771472  0.81820223  0.36381542     0.20330
F387        F  0.05650376  0.81903731  0.40968402    -0.12520
F388        F  0.99886641  0.76617051  0.36990602    -0.14890
F389        F  0.12622140  0.84617456  0.26351927    -0.14890
F390        F  0.05833684  0.80446904  0.22407454    -0.12520
C391        C  0.88574654  0.79456149  0.34718519     0.25490
C392        C  0.88645848  0.84191892  0.34340110    -0.22620
C393        C  0.91541705  0.86107830  0.31047734     0.20390
C394        C  0.94279393  0.83485207  0.28399683     0.25430
C395        C  0.94454596  0.78884148  0.29094872    -0.22570
C396        C  0.91472936  0.76856174  0.32121609     0.20330
F397        F  0.91676198  0.72399733  0.32895050    -0.12520
F398        F  0.85956730  0.77260153  0.37738900    -0.14890
F399        F  0.97055919  0.85494415  0.25366390    -0.14890
F400        F  0.91697463  0.90577176  0.30332318    -0.12520
C401        C  0.70315203  0.11199134  0.17470139     0.25490
C402        C  0.65619841  0.10793933  0.16669771    -0.22620
C403        C  0.63322486  0.07378530  0.19021051     0.20390
C404        C  0.65630347  0.04348589  0.21721298     0.25430
C405        C  0.70330935  0.04416552  0.21911659    -0.22570
C406        C  0.72643717  0.07873878  0.19750707     0.20330
F407        F  0.77175804  0.07945769  0.19621545    -0.12520
F408        F  0.72752507  0.14785623  0.16127910    -0.14890
F409        F  0.63269589  0.01155246  0.23959120    -0.14890
F410        F  0.58802165  0.07025518  0.18774051    -0.12520
C411        C  0.64027779  0.93966953  0.81248187     0.25490
C412        C  0.66099951  0.90990135  0.84326475    -0.22620
C413        C  0.70782850  0.91563791  0.85067320     0.20390
C414        C  0.73291421  0.94512722  0.82413013     0.25430
C415        C  0.71181612  0.97285638  0.79271425    -0.22570
C416        C  0.66538574  0.96968311  0.78692174     0.20330
F417        F  0.64393888  0.99740928  0.75770434    -0.12520
F418        F  0.59516670  0.93971063  0.80714501    -0.14890
F419        F  0.77725924  0.95004500  0.83265915    -0.14890
F420        F  0.72937830  0.89713390  0.88649276    -0.12520
C421        C  0.64728670  0.83740489  0.94714667     0.25490
C422        C  0.65904241  0.84568245  0.90158546    -0.22620
C423        C  0.69167560  0.81660754  0.88274217     0.20390
C424        C  0.71512590  0.78629646  0.91079348     0.25430
C425        C  0.69932489  0.77706002  0.95535122    -0.22570
C426        C  0.65817144  0.79678954  0.96521714     0.20330
F427        F  0.62352794  0.77196170  0.98071716    -0.12520
F428        F  0.61652257  0.86077628  0.97062110    -0.14890
F429        F  0.74999782  0.76505262  0.89206721    -0.14890
F430        F  0.70252780  0.81927714  0.83808363    -0.12520
C431        C  0.57529404  0.81167417  0.86271914     0.25490
C432        C  0.60220111  0.84463147  0.84091865    -0.22620
C433        C  0.60232773  0.84362116  0.79255787     0.20390
C434        C  0.56991291  0.81899827  0.76892668     0.25430
C435        C  0.54301877  0.78772091  0.79178875    -0.22570
C436        C  0.54948981  0.78179667  0.83825807     0.20330
F437        F  0.52877018  0.74835439  0.86099339    -0.12520
F438        F  0.57295690  0.80759753  0.90833445    -0.14890
F439        F  0.56613418  0.82401975  0.72328302    -0.14890
F440        F  0.63369896  0.86484192  0.76732764    -0.12520
C441        C  0.43032280  0.86608338  0.81022288     0.25490
C442        C  0.40016278  0.84580124  0.84122091    -0.22620
C443        C  0.41088944  0.80136139  0.85370402     0.20390
C444        C  0.43989299  0.77600329  0.82762186     0.25430
C445        C  0.46170563  0.79444738  0.78974523    -0.22570
C446        C  0.45752334  0.84039164  0.78220580     0.20330
F447        F  0.48249183  0.86109058  0.74994480    -0.12520
F448        F  0.43339171  0.91117066  0.80673319    -0.14890
F449        F  0.44991376  0.73438130  0.84256588    -0.14890
F450        F  0.39918706  0.78381963  0.89450247    -0.12520
C451        C  0.71095621  0.83644234  0.09619013     0.25490
C452        C  0.66315892  0.83572916  0.09967165    -0.22620
C453        C  0.64155745  0.79962902  0.07753105     0.20390
C454        C  0.66663499  0.76609597  0.05692640     0.25430
C455        C  0.70977698  0.77610302  0.04155889    -0.22570
C456        C  0.73274704  0.81049985  0.06346995     0.20330
F457        F  0.77623491  0.81889969  0.05346320    -0.12520
F458        F  0.73764070  0.86043553  0.12402893    -0.14890
F459        F  0.64635272  0.72734114  0.04483081    -0.14890
F460        F  0.59649747  0.79435854  0.07926164    -0.12520
C461        C  0.66653645  0.89645617  0.20810106     0.25490
C462        C  0.66431994  0.89929802  0.15950234    -0.22620
C463        C  0.69164020  0.93228014  0.13873942     0.20390
C464        C  0.71557616  0.96280472  0.16455647     0.25430
C465        C  0.71221976  0.96298006  0.21201966    -0.22570
C466        C  0.68854569  0.92894481  0.23361394     0.20330
F467        F  0.68475466  0.92821829  0.27950781    -0.12520
F468        F  0.64835963  0.86245913  0.23228318    -0.14890
F469        F  0.74093983  0.99383628  0.14282545    -0.14890
F470        F  0.69797771  0.93334840  0.09310848    -0.12520
C471        C  0.72096886  0.05757578  0.84443727     0.25490
C472        C  0.71828208  0.05459643  0.79704752    -0.22620
C473        C  0.69329025  0.08630475  0.77332029     0.20390
C474        C  0.66870537  0.11825645  0.79698536     0.25430
C475        C  0.66375042  0.11546891  0.84515368    -0.22570
C476        C  0.69397165  0.08694399  0.86815168     0.20330
F477        F  0.69919805  0.08881713  0.91389193    -0.12520
F478        F  0.74875952  0.03055623  0.86822582    -0.14890
F479        F  0.65196431  0.15254668  0.77229215    -0.14890
F480        F  0.69138497  0.08560330  0.72732667    -0.12520
C481        C  0.43696649  0.17347782  0.76840003     0.25490
C482        C  0.45328977  0.21504780  0.78230604    -0.22620
C483        C  0.44122060  0.23074274  0.82538208     0.20390
C484        C  0.41252549  0.20611955  0.85323377     0.25430
C485        C  0.39445653  0.16478135  0.83863255    -0.22570
C486        C  0.41277836  0.14667944  0.79848518     0.20330
F487        F  0.40695603  0.10305157  0.78789423    -0.12520
F488        F  0.44716031  0.15734280  0.72674472    -0.14890
F489        F  0.40553147  0.22144539  0.89591473    -0.14890
F490        F  0.45934422  0.26880371  0.84196099    -0.12520
C491        C  0.59220536  0.21783118  0.84221279     0.25490
C492        C  0.59804438  0.17083696  0.84194474    -0.22620
C493        C  0.57156221  0.14658905  0.81062390     0.20390
C494        C  0.54520627  0.16846278  0.77828663     0.25430
C495        C  0.53624397  0.21432760  0.78186062    -0.22570
C496        C  0.55861074  0.23783858  0.81629381     0.20330
F497        F  0.54544430  0.27904384  0.82867440    -0.12520
F498        F  0.61682153  0.24547533  0.86849055    -0.14890
F499        F  0.52706445  0.14395425  0.74446979    -0.14890
F500        F  0.57383879  0.10142363  0.80895867    -0.12520
C501        C  0.42797261  0.80490059  0.22856927     0.25490
C502        C  0.45992548  0.77960262  0.20560579    -0.22620
C503        C  0.45995933  0.78053468  0.15810804     0.20390
C504        C  0.43156209  0.80886829  0.13418634     0.25430
C505        C  0.39921331  0.83553154  0.15688363    -0.22570
C506        C  0.39687631  0.83038719  0.20498638     0.20330
F507        F  0.36502728  0.84973075  0.23090142    -0.12520
F508        F  0.42928266  0.80953914  0.27405316    -0.14890
F509        F  0.43253873  0.80564857  0.08825144    -0.14890
F510        F  0.48995488  0.75575323  0.13465358    -0.12520
C511        C  0.61216687  0.79493279  0.17381847     0.25490
C512        C  0.60344825  0.84015770  0.16147595    -0.22620
C513        C  0.56742335  0.86095112  0.18369140     0.20390
C514        C  0.53857755  0.83640980  0.21136609     0.25430
C515        C  0.54184078  0.78950362  0.21434041    -0.22570
C516        C  0.57979924  0.76920109  0.19591091     0.20330
F517        F  0.58499685  0.72436007  0.19683086    -0.12520
F518        F  0.65193654  0.77512058  0.16513362    -0.14890
F519        F  0.50566581  0.85853287  0.23337818    -0.14890
F520        F  0.56087168  0.90554977  0.17982889    -0.12520
C521        C  0.15493934  0.96005493  0.72546969     0.25490
C522        C  0.20166366  0.96293445  0.72171312    -0.22620
C523        C  0.22398957  0.93016624  0.69700825     0.20390
C524        C  0.20009614  0.89670665  0.67502542     0.25430
C525        C  0.15272537  0.89931881  0.67039510    -0.22570
C526        C  0.13073732  0.92979106  0.69939292     0.20330
F527        F  0.08567246  0.92880426  0.70474736    -0.12520
F528        F  0.13221329  0.98795923  0.75312755    -0.14890
F529        F  0.22427134  0.86213877  0.65872099    -0.14890
F530        F  0.26876443  0.93178112  0.69110306    -0.12520
C531        C  0.17467160  0.07124689  0.73465490     0.25490
C532        C  0.20674274  0.04499882  0.71315995    -0.22620
C533        C  0.21121493  0.04767315  0.66587939     0.20390
C534        C  0.18428230  0.07615867  0.64048368     0.25430
C535        C  0.15293911  0.10467343  0.66170220    -0.22570
C536        C  0.14593983  0.09806241  0.70905031     0.20330
F537        F  0.10864703  0.11263258  0.73032458    -0.12520
F538        F  0.16743429  0.06665387  0.77991946    -0.14890
F539        F  0.18893700  0.07599343  0.59462419    -0.14890
F540        F  0.24031297  0.02065642  0.64390251    -0.12520
C541        C  0.31748371  0.11542237  0.79378707     0.25490
C542        C  0.32672688  0.10900901  0.84097930    -0.22620
C543        C  0.29863073  0.07744630  0.86298876     0.20390
C544        C  0.27054074  0.04955218  0.83868664     0.25430
C545        C  0.27256455  0.04769663  0.79130736    -0.22570
C546        C  0.29464973  0.08256727  0.76871577     0.20330
F547        F  0.29495658  0.08469025  0.72274367    -0.12520
F548        F  0.32950926  0.15323640  0.77156147    -0.14890
F549        F  0.24177441  0.02358636  0.86241629    -0.14890
F550        F  0.29705071  0.07239133  0.90841936    -0.12520
C551        C  0.26034668  0.94219064  0.82306367     0.25490
C552        C  0.27819477  0.96445685  0.78582947    -0.22620
C553        C  0.31935802  0.95028248  0.76911940     0.20390
C554        C  0.34135738  0.91437824  0.78955033     0.25430
C555        C  0.33123597  0.90123369  0.83504142    -0.22570
C556        C  0.28759373  0.91503242  0.84979874     0.20330
F557        F  0.26889166  0.90275920  0.88939900    -0.12520
F558        F  0.21733690  0.94932453  0.83576948    -0.14890
F559        F  0.36567674  0.88899217  0.76106384    -0.14890
F560        F  0.33666974  0.96888195  0.73088755    -0.12520
C561        C  0.02690074  0.72369841  0.17671942     0.25490
C562        C  0.02579654  0.71595627  0.22349744    -0.22620
C563        C  0.05062755  0.68071245  0.24145558     0.20390
C564        C  0.07489509  0.65313072  0.21237545     0.25430
C565        C  0.08212668  0.66534500  0.16625395    -0.22570
C566        C  0.04978238  0.69482471  0.14868620     0.20330
F567        F  0.02784459  0.68467734  0.10994002    -0.12520
F568        F  0.99813577  0.75312058  0.15738733    -0.14890
F569        F  0.08473845  0.61173104  0.22795706    -0.14890
F570        F  0.04639589  0.66934688  0.28588522    -0.12520
C571        C  0.76191903  0.68643332  0.06675296     0.25490
C572        C  0.78463409  0.71604979  0.03808385    -0.22620
C573        C  0.83057635  0.72263998  0.04482489     0.20390
C574        C  0.85426230  0.69603935  0.07517917     0.25430
C575        C  0.83223688  0.66393199  0.10284521    -0.22570
C576        C  0.78465684  0.66268347  0.10022494     0.20330
F577        F  0.75883480  0.63912461  0.12951965    -0.12520
F578        F  0.71771121  0.67836959  0.06093832    -0.14890
F579        F  0.89882212  0.70387762  0.07941169    -0.14890
F580        F  0.85310354  0.75455173  0.02153138    -0.12520
C581        C  0.91706557  0.63888610  0.19985748     0.25490
C582        C  0.88818350  0.66138433  0.16938470    -0.22620
C583        C  0.88302111  0.70817701  0.17614407     0.20390
C584        C  0.91262203  0.73170166  0.20382933     0.25430
C585        C  0.94384517  0.70884417  0.23047020    -0.22570
C586        C  0.94256561  0.66219258  0.23115505     0.20330
F587        F  0.96795568  0.63876504  0.26086657    -0.12520
F588        F  0.91847864  0.59378992  0.20201295    -0.14890
F589        F  0.91226033  0.77687583  0.20223707    -0.14890
F590        F  0.84898254  0.73180944  0.15772938    -0.12520
C591        C  0.77984104  0.46667632  0.84710000     0.25490
C592        C  0.76432207  0.45777867  0.80265753    -0.22620
C593        C  0.77527574  0.41578675  0.78463918     0.20390
C594        C  0.80784330  0.38922110  0.80484373     0.25430
C595        C  0.82996432  0.40264074  0.84505630    -0.22570
C596        C  0.81258757  0.44039530  0.86752262     0.20330
F597        F  0.82532054  0.45085755  0.91041272    -0.12520
F598        F  0.76460051  0.50253794  0.87032051    -0.14890
F599        F  0.81449890  0.34830025  0.78667239    -0.14890
F600        F  0.75181107  0.39660651  0.75117221    -0.12520
C601        C  0.03318059  0.72196460  0.82492213     0.25490
C602        C  0.03182547  0.71486324  0.77800469    -0.22620
C603        C  0.06296374  0.68575009  0.75860171     0.20390
C604        C  0.09061973  0.65952100  0.78636346     0.25430
C605        C  0.09282022  0.66653932  0.83406169    -0.22570
C606        C  0.06300848  0.69855244  0.85240125     0.20330
F607        F  0.06179312  0.70657056  0.89768639    -0.12520
F608        F  0.00313145  0.74961724  0.84465310    -0.14890
F609        F  0.11051219  0.62414517  0.76646525    -0.14890
F610        F  0.06073775  0.67666088  0.71356090    -0.12520
C611        C  0.84625990  0.70233164  0.90562824     0.25490
C612        C  0.83463776  0.65744790  0.89605631    -0.22620
C613        C  0.79952617  0.63836527  0.92204921     0.20390
C614        C  0.77228575  0.66466273  0.94929754     0.25430
C615        C  0.78161875  0.71005167  0.95515614    -0.22570
C616        C  0.81935577  0.72835704  0.93363437     0.20330
F617        F  0.83057853  0.77171814  0.94036811    -0.12520
F618        F  0.88547296  0.72047014  0.89154311    -0.14890
F619        F  0.73839497  0.64500788  0.97262756    -0.14890
F620        F  0.79132634  0.59384323  0.92074599    -0.12520
C621        C  0.93593575  0.63675428  0.81809218     0.25490
C622        C  0.89333254  0.65291552  0.83097329    -0.22620
C623        C  0.87712903  0.68975724  0.80586573     0.20390
C624        C  0.90624881  0.71544163  0.77920670     0.25430
C625        C  0.94940789  0.69932224  0.76838913    -0.22570
C626        C  0.95862849  0.65556897  0.78215892     0.20330
F627        F  0.99266878  0.63199119  0.76391876    -0.12520
F628        F  0.95667230  0.60189278  0.83789266    -0.14890
F629        F  0.89089118  0.75534813  0.76587699    -0.14890
F630        F  0.83428395  0.70372568  0.81049636    -0.12520
C631        C  0.84949414  0.56480436  0.80376318     0.25490
C632        C  0.83138745  0.59904847  0.83136651    -0.22620
C633        C  0.78502884  0.60779156  0.82529053     0.20390
C634        C  0.75710714  0.57606439  0.80540042     0.25430
C635        C  0.77541823  0.53865642  0.78408051    -0.22570
C636        C  0.82186144  0.53592731  0.77980360     0.20330
F637        F  0.84057916  0.50198724  0.75616746    -0.12520
F638        F  0.89390580  0.55786621  0.79981896    -0.14890
F639        F  0.71238829  0.58043399  0.81057846    -0.14890
F640        F  0.76587586  0.64647523  0.83863924    -0.12520
C641        C  0.20631668  0.54320621  0.84517989     0.25490
C642        C  0.22459049  0.55439672  0.80255511    -0.22620
C643        C  0.21694631  0.59866692  0.78758231     0.20390
C644        C  0.18743849  0.62645101  0.81120993     0.25430
C645        C  0.15846589  0.60888875  0.84480505    -0.22570
C646        C  0.17034563  0.56650106  0.86259301     0.20330
F647        F  0.14870551  0.54655007  0.89761543    -0.12520
F648        F  0.21998840  0.50637548  0.86812558    -0.14890
F649        F  0.18464368  0.66982435  0.79833470    -0.14890
F650        F  0.23692749  0.61670156  0.75103263    -0.12520
C651        C  0.23533705  0.43702553  0.80621338     0.25490
C652        C  0.21587678  0.47302943  0.78331718    -0.22620
C653        C  0.16910891  0.47372137  0.77878623     0.20390
C654        C  0.14217101  0.44325629  0.80231241     0.25430
C655        C  0.16106698  0.41017311  0.83098988    -0.22570
C656        C  0.20857667  0.40516423  0.82813621     0.20330
F657        F  0.23028641  0.36952030  0.84577950    -0.12520
F658        F  0.28037215  0.43459463  0.81094352    -0.14890
F659        F  0.09746512  0.44503168  0.79488704    -0.14890
F660        F  0.14926186  0.50644723  0.75412721    -0.12520
C661        C  0.79625072  0.57392871  0.23310113     0.25490
C662        C  0.77776696  0.53709175  0.21081609    -0.22620
C663        C  0.78279215  0.53404829  0.16335360     0.20390
C664        C  0.80943525  0.56441695  0.13957789     0.25430
C665        C  0.82959022  0.60087776  0.16196904    -0.22570
C666        C  0.81856168  0.60697665  0.20865585     0.20330
F667        F  0.82893649  0.64469543  0.23164476    -0.12520
F668        F  0.79550488  0.57703451  0.27897881    -0.14890
F669        F  0.81440681  0.55887379  0.09414576    -0.14890
F670        F  0.76376727  0.49988969  0.14015062    -0.12520
C671        C  0.76885820  0.41994918  0.20229920     0.25490
C672        C  0.78735519  0.45625035  0.22528991    -0.22620
C673        C  0.83394117  0.45968020  0.22825276     0.20390
C674        C  0.86134754  0.43301784  0.20186683     0.25430
C675        C  0.84335306  0.39932808  0.17343940    -0.22570
C676        C  0.79670062  0.39005446  0.17935161     0.20330
F677        F  0.77725408  0.35212622  0.16398466    -0.12520
F678        F  0.72388575  0.41459555  0.19978509    -0.14890
F679        F  0.90568947  0.44135321  0.20459260    -0.14890
F680        F  0.85305460  0.49234327  0.25357656    -0.12520
C681        C  0.03060411  0.21834925  0.65877467     0.25490
C682        C  0.03753299  0.23086663  0.70393730    -0.22620
C683        C  0.07893588  0.21841748  0.72320549     0.20390
C684        C  0.10962900  0.19377723  0.69691877     0.25430
C685        C  0.09417851  0.16901845  0.65870755    -0.22570
C686        C  0.05155702  0.18128729  0.64202116     0.20330
F687        F  0.03020713  0.16098476  0.60735059    -0.12520
F688        F  0.00060765  0.23906197  0.63166363    -0.14890
F689        F  0.15250819  0.19036938  0.71151983    -0.14890
F690        F  0.08956205  0.22793227  0.76677367    -0.12520
C691        C  0.92857275  0.24256742  0.68084485     0.25490
C692        C  0.95479367  0.22362387  0.71508712    -0.22620
C693        C  0.95144578  0.17770764  0.72349930     0.20390
C694        C  0.92356837  0.15091851  0.69711810     0.25430
C695        C  0.89859349  0.16914224  0.66061443    -0.22570
C696        C  0.90598260  0.21483401  0.65044727     0.20330
F697        F  0.89638165  0.23212005  0.60900374    -0.12520
F698        F  0.93353586  0.28641584  0.67033717    -0.14890
F699        F  0.92214412  0.10661711  0.70651180    -0.14890
F700        F  0.97776446  0.15833426  0.75545579    -0.12520
C701        C  0.94857932  0.34701524  0.77430668     0.25490
C702        C  0.95291723  0.30052850  0.77658365    -0.22620
C703        C  0.92144324  0.27609620  0.80172419     0.20390
C704        C  0.88880628  0.29808428  0.82697720     0.25430
C705        C  0.89044786  0.34520609  0.83256392    -0.22570
C706        C  0.91789586  0.36908176  0.80173018     0.20330
F707        F  0.91522051  0.41402102  0.79781015    -0.12520
F708        F  0.97638056  0.37145325  0.74754952    -0.14890
F709        F  0.85565066  0.27264440  0.84490718    -0.14890
F710        F  0.92399305  0.23109062  0.80483974    -0.12520
C711        C  0.06817775  0.32307178  0.75987321     0.25490
C712        C  0.03542588  0.29870959  0.78307357    -0.22620
C713        C  0.03681611  0.29662334  0.83047943     0.20390
C714        C  0.06733359  0.32194295  0.85469403     0.25430
C715        C  0.09903336  0.34957768  0.83228893    -0.22570
C716        C  0.10110860  0.34627211  0.78401418     0.20330
F717        F  0.13527831  0.36362970  0.75943561    -0.12520
F718        F  0.06800404  0.32493997  0.71385833    -0.14890
F719        F  0.06728088  0.31692034  0.90041826    -0.14890
F720        F  0.00741260  0.27061099  0.85374661    -0.12520
C721        C  0.72209755  0.16767669  0.04869673     0.25490
C722        C  0.72483776  0.21414533  0.05086667    -0.22620
C723        C  0.70134236  0.23663379  0.08466212     0.20390
C724        C  0.67218970  0.21329499  0.11314270     0.25430
C725        C  0.66303966  0.16706792  0.10591010    -0.22570
C726        C  0.69112663  0.14456040  0.07476511     0.20330
F727        F  0.69109570  0.09958740  0.07126683    -0.12520
F728        F  0.74679990  0.14493875  0.01786771    -0.14890
F729        F  0.65459189  0.23646696  0.14821503    -0.14890
F730        F  0.70361044  0.28166608  0.08784375    -0.12520
C731        C  0.64000206  0.19871343  0.94180811     0.25490
C732        C  0.65944562  0.17679575  0.90425327    -0.22620
C733        C  0.70577214  0.18579538  0.89629980     0.20390
C734        C  0.73243552  0.20606179  0.92939054     0.25430
C735        C  0.71296378  0.22453494  0.96819013    -0.22570
C736        C  0.66602468  0.22354673  0.97181665     0.20330
F737        F  0.64512932  0.24502788  0.00620542    -0.12520
F738        F  0.59523311  0.19869372  0.94848809    -0.14890
F739        F  0.77744444  0.20504663  0.92423695    -0.14890
F740        F  0.72628951  0.17492332  0.85684869    -0.12520
C741        C  0.78652120  0.33404802  0.05490701     0.25490
C742        C  0.79357624  0.28808752  0.05042526    -0.22620
C743        C  0.82816361  0.26825121  0.07537411     0.20390
C744        C  0.85569574  0.29409858  0.10378322     0.25430
C745        C  0.84766702  0.34042434  0.10970295    -0.22570
C746        C  0.81418373  0.35994221  0.08211477     0.20330
F747        F  0.80755567  0.40471765  0.08221921    -0.12520
F748        F  0.75409080  0.35462934  0.03045287    -0.14890
F749        F  0.89237113  0.27415113  0.12146345    -0.14890
F750        F  0.83772074  0.22451378  0.06923634    -0.12520
C751        C  0.76886127  0.31347998  0.93997065     0.25490
C752        C  0.79393741  0.28490434  0.96706485    -0.22620
C753        C  0.83986011  0.28071599  0.95946942     0.20390
C754        C  0.86133192  0.30777026  0.92799032     0.25430
C755        C  0.83719749  0.33935112  0.90181597    -0.22570
C756        C  0.78959622  0.33966945  0.90723356     0.20330
F757        F  0.76158378  0.36523844  0.88232118    -0.12520
F758        F  0.72430417  0.31835742  0.94711674    -0.14890
F759        F  0.90589740  0.30161445  0.92199574    -0.14890
F760        F  0.86439500  0.25102288  0.98364763    -0.12520
C761        C  0.21846926  0.70602994  0.07714326     0.25490
C762        C  0.19824514  0.73121347  0.04285939    -0.22620
C763        C  0.15189352  0.73491692  0.04346403     0.20390
C764        C  0.12597808  0.70834914  0.07216941     0.25430
C765        C  0.14534713  0.67985770  0.10592016    -0.22570
C766        C  0.19293494  0.68439543  0.11017719     0.20330
F767        F  0.21688891  0.66669570  0.14473307    -0.12520
F768        F  0.26272553  0.69758111  0.07656151    -0.14890
F769        F  0.08233683  0.70941616  0.06219987    -0.14890
F770        F  0.13102033  0.76026713  0.01161741    -0.12520
C771        C  0.20198269  0.67329451  0.96393983     0.25490
C772        C  0.20536321  0.71960309  0.95963185    -0.22620
C773        C  0.18421561  0.74056785  0.92288994     0.20390
C774        C  0.15995840  0.71524502  0.89135164     0.25430
C775        C  0.15077889  0.66921839  0.89961439    -0.22570
C776        C  0.17286739  0.64931769  0.93698549     0.20330
F777        F  0.16555234  0.60655315  0.94936852    -0.12520
F778        F  0.22413031  0.65131695  0.99740421    -0.14890
F779        F  0.14609359  0.73640994  0.85317843    -0.14890
F780        F  0.18594406  0.78550566  0.91801455    -0.12520
C781        C  0.29492032  0.85869087  0.08096633     0.25490
C782        C  0.33315075  0.83812366  0.10055012    -0.22620
C783        C  0.33708830  0.79133281  0.09288218     0.20390
C784        C  0.31319929  0.77175625  0.05779164     0.25430
C785        C  0.27388935  0.79161755  0.04255130    -0.22570
C786        C  0.26153426  0.83236748  0.06137455     0.20330
F787        F  0.22031199  0.84959391  0.05352393    -0.12520
F788        F  0.28776825  0.90321339  0.08414512    -0.14890
F789        F  0.32830866  0.73333773  0.03913144    -0.14890
F790        F  0.36130548  0.76323975  0.11899159    -0.12520
C791        C  0.28929618  0.77925913  0.91769342     0.25490
C792        C  0.27369413  0.79950747  0.95784330    -0.22620
C793        C  0.28488516  0.84434544  0.96321951     0.20390
C794        C  0.32215200  0.86200494  0.94290216     0.25430
C795        C  0.33574826  0.84540030  0.90014006    -0.22570
C796        C  0.31415943  0.80504910  0.88607181     0.20330
F797        F  0.31976728  0.78903608  0.84345655    -0.12520
F798        F  0.28113606  0.73578502  0.90858785    -0.14890
F799        F  0.33559948  0.90116695  0.96056929    -0.14890
F800        F  0.25721821  0.87325958  0.98409538    -0.12520
C801        C  0.16398445  0.45822450  0.22263978     0.25490
C802        C  0.20784306  0.46841909  0.20897626    -0.22620
C803        C  0.22499526  0.44726000  0.17059593     0.20390
C804        C  0.19678823  0.42155902  0.14320775     0.25430
C805        C  0.15528421  0.40521580  0.15993181    -0.22570
C806        C  0.13852990  0.42634845  0.19945296     0.20330
F807        F  0.09613549  0.41877662  0.21398300    -0.12520
F808        F  0.14539358  0.48015504  0.25811472    -0.14890
F809        F  0.20978357  0.41421260  0.09977363    -0.14890
F810        F  0.26737908  0.45594881  0.15658438    -0.12520
C811        C  0.19021365  0.58641774  0.22822774     0.25490
C812        C  0.20973637  0.55117199  0.20405341    -0.22620
C813        C  0.20623904  0.55263454  0.15622348     0.20390
C814        C  0.17605554  0.58092308  0.13477560     0.25430
C815        C  0.15185786  0.61290845  0.15967268    -0.22570
C816        C  0.16718935  0.62002718  0.20487366     0.20330
F817        F  0.16070106  0.65936514  0.22642715    -0.12520
F818        F  0.19193396  0.58836039  0.27411660    -0.14890
F819        F  0.17271052  0.57878772  0.08885827    -0.14890
F820        F  0.23229506  0.52712040  0.12943579    -0.12520
C821        C  0.16189766  0.22578486  0.54122218     0.25490
C822        C  0.20828292  0.22198531  0.54116124    -0.22620
C823        C  0.22838184  0.19277592  0.57229938     0.20390
C824        C  0.20279406  0.17103828  0.60534190     0.25430
C825        C  0.15538290  0.16911198  0.60168279    -0.22570
C826        C  0.13583087  0.19910932  0.56964378     0.20330
F827        F  0.09121481  0.20313449  0.56435022    -0.12520
F828        F  0.14141208  0.25284612  0.51063295    -0.14890
F829        F  0.22527357  0.15385151  0.64125050    -0.14890
F830        F  0.27351765  0.18786743  0.57259980    -0.12520
C831        C  0.22043636  0.16387395  0.46584218     0.25490
C832        C  0.22451899  0.21051704  0.45942242    -0.22620
C833        C  0.20784111  0.22702646  0.41783681     0.20390
C834        C  0.18675900  0.19865451  0.38672627     0.25430
C835        C  0.17023324  0.15639061  0.40085352    -0.22570
C836        C  0.18953556  0.13898278  0.44084670     0.20330
F837        F  0.17763109  0.09881519  0.45789034    -0.12520
F838        F  0.24293819  0.14266646  0.49937544    -0.14890
F839        F  0.17815275  0.21512822  0.34469507    -0.14890
F840        F  0.20708594  0.27070555  0.40788217    -0.12520
C841        C  0.53872017  0.22630820  0.16307922     0.25490
C842        C  0.53434692  0.22249113  0.21024466    -0.22620
C843        C  0.56536042  0.19700828  0.23445125     0.20390
C844        C  0.59799510  0.17270098  0.21148873     0.25430
C845        C  0.59845046  0.17084002  0.16306122    -0.22570
C846        C  0.57019883  0.20119177  0.13983193     0.20330
F847        F  0.57396781  0.20784013  0.09437633    -0.12520
F848        F  0.51080710  0.25314413  0.13913682    -0.14890
F849        F  0.62907795  0.15220072  0.23761418    -0.14890
F850        F  0.56239928  0.19323983  0.28025510    -0.12520
C851        C  0.42395677  0.14471634  0.18409468     0.25490
C852        C  0.39016247  0.16710803  0.15966257    -0.22620
C853        C  0.38561317  0.21392053  0.16714813     0.20390
C854        C  0.41796738  0.23756227  0.19121554     0.25430
C855        C  0.45217515  0.21486927  0.21362519    -0.22570
C856        C  0.45310984  0.16803113  0.21198474     0.20330
F857        F  0.48402959  0.14468261  0.23586183    -0.12520
F858        F  0.42785923  0.09967871  0.18215884    -0.14890
F859        F  0.41665379  0.28274773  0.19083072    -0.14890
F860        F  0.34995718  0.23763579  0.15234044    -0.12520
C861        C  0.03261722  0.29056609  0.17241025     0.25490
C862        C  0.04295140  0.28392227  0.21836952    -0.22620
C863        C  0.08449710  0.30002444  0.23395976     0.20390
C864        C  0.11250838  0.32454755  0.20493611     0.25430
C865        C  0.09605350  0.34157607  0.16316015    -0.22570
C866        C  0.05448894  0.32398612  0.14812759     0.20330
F867        F  0.03216479  0.34076704  0.11197395    -0.12520
F868        F  0.99455362  0.27285670  0.15471360    -0.14890
F869        F  0.15416229  0.33474193  0.21990775    -0.14890
F870        F  0.09697324  0.29580593  0.27778669    -0.12520
C871        C  0.95745470  0.22267036  0.34622175     0.25490
C872        C  0.96563829  0.21932937  0.29977133    -0.22620
C873        C  0.94109558  0.18889978  0.27401272     0.20390
C874        C  0.90509707  0.16651142  0.29338278     0.25430
C875        C  0.89957075  0.16529001  0.34148502    -0.22570
C876        C  0.92815038  0.19344481  0.36732712     0.20330
F877        F  0.92401659  0.19761155  0.41292221    -0.12520
F878        F  0.97739368  0.25453563  0.37161600    -0.14890
F879        F  0.87538308  0.14870332  0.26381999    -0.14890
F880        F  0.94852052  0.18515533  0.22871292    -0.12520
C881        C  0.89029710  0.31380054  0.20394923     0.25490
C882        C  0.90712519  0.34764012  0.17508579    -0.22620
C883        C  0.95003391  0.36472441  0.18678989     0.20390
C884        C  0.97368913  0.34757721  0.22350431     0.25430
C885        C  0.96336431  0.30502722  0.24050958    -0.22570
C886        C  0.91824122  0.29145221  0.23467388     0.20330
F887        F  0.89787949  0.26202580  0.26233307    -0.12520
F888        F  0.84669808  0.30131146  0.20175612    -0.14890
F889        F  0.01195822  0.36852924  0.23633556    -0.14890
F890        F  0.97019341  0.39861999  0.16436598    -0.12520
C891        C  0.08987638  0.20101049  0.36215429     0.25490
C892        C  0.10458975  0.16008284  0.34375552    -0.22620
C893        C  0.08409621  0.14612618  0.30270371     0.20390
C894        C  0.05656521  0.17502125  0.27799665     0.25430
C895        C  0.04677685  0.21765436  0.29458043    -0.22570
C896        C  0.06498348  0.23063886  0.33630898     0.20330
F897        F  0.05610125  0.27148004  0.35371038    -0.12520
F898        F  0.09846660  0.21230160  0.40588379    -0.14890
F899        F  0.03703705  0.16024079  0.23928780    -0.14890
F900        F  0.08869629  0.10378360  0.28742340    -0.12520
C901        C  0.33793891  0.96315108  0.21026122     0.25490
C902        C  0.29084803  0.96051305  0.21325483    -0.22620
C903        C  0.26960294  0.92267150  0.19541340     0.20390
C904        C  0.29488989  0.88885154  0.17587075     0.25430
C905        C  0.34015268  0.89667560  0.16311205    -0.22570
C906        C  0.36194730  0.93286521  0.18414140     0.20330
F907        F  0.40677474  0.93870121  0.17982775    -0.12520
F908        F  0.36077694  0.99661790  0.23081422    -0.14890
F909        F  0.27445624  0.84900063  0.16893136    -0.14890
F910        F  0.22447357  0.91884179  0.19438987    -0.12520
C911        C  0.20194989  0.07932097  0.26992885     0.25490
C912        C  0.21777531  0.03914495  0.28861780    -0.22620
C913        C  0.21189711  0.03205014  0.33539393     0.20390
C914        C  0.18309407  0.05848799  0.36021443     0.25430
C915        C  0.16575481  0.09849810  0.34192490    -0.22570
C916        C  0.18058871  0.11058319  0.29768563     0.20330
F917        F  0.17246198  0.15148816  0.27989943    -0.12520
F918        F  0.20449403  0.08776715  0.22480986    -0.14890
F919        F  0.17060738  0.04248737  0.40126886    -0.14890
F920        F  0.23018182  0.99609577  0.35634874    -0.12520
C921        C  0.30505761  0.07505796  0.23064126     0.25490
C922        C  0.28085104  0.04227842  0.20761864    -0.22620
C923        C  0.27611443  0.04544860  0.16043456     0.20390
C924        C  0.29908223  0.07792789  0.13596811     0.25430
C925        C  0.32828311  0.10826952  0.15792649    -0.22570
C926        C  0.32691214  0.10879767  0.20643627     0.20330
F927        F  0.34547597  0.14188142  0.23141850    -0.12520
F928        F  0.30937338  0.07330008  0.27646465    -0.14890
F929        F  0.29158749  0.08038927  0.09057602    -0.14890
F930        F  0.25040956  0.01555399  0.13769305    -0.12520
C931        C  0.22578242  0.92198310  0.29509821     0.25490
C932        C  0.20603006  0.95861839  0.27354933    -0.22620
C933        C  0.15909816  0.96098971  0.27221029     0.20390
C934        C  0.13292324  0.93214761  0.29839844     0.25430
C935        C  0.15302660  0.89964476  0.32664627    -0.22570
C936        C  0.19914296  0.89086711  0.31794639     0.20330
F937        F  0.21904094  0.85243912  0.33133053    -0.12520
F938        F  0.27086521  0.91769043  0.29693030    -0.14890
F939        F  0.08786369  0.93497403  0.29434059    -0.14890
F940        F  0.13868425  0.99372380  0.24804344    -0.12520
C941        C  0.18937740  0.27920756  0.92123148     0.25490
C942        C  0.21213706  0.30105742  0.95630653    -0.22620
C943        C  0.21099922  0.34784958  0.95791343     0.20390
C944        C  0.18447786  0.37208975  0.92794587     0.25430
C945        C  0.15974999  0.35061130  0.89340444    -0.22570
C946        C  0.16572380  0.30366572  0.88867183     0.20330
F947        F  0.14971760  0.28070157  0.85257713    -0.12520
F948        F  0.18821813  0.23404783  0.91944187    -0.14890
F949        F  0.18356535  0.41712340  0.93224636    -0.14890
F950        F  0.23371636  0.37013849  0.99071699    -0.12520
C951        C  0.28407243  0.17860520  0.10404335     0.25490
C952        C  0.33089325  0.17161602  0.09848504    -0.22620
C953        C  0.35327926  0.19977914  0.06699849     0.20390
C954        C  0.32975020  0.22919573  0.03948676     0.25430
C955        C  0.28294125  0.22965125  0.03991052    -0.22570
C956        C  0.26032211  0.20545449  0.07370546     0.20330
F957        F  0.21501122  0.20416945  0.07483453    -0.12520
F958        F  0.26048136  0.16053814  0.13883298    -0.14890
F959        F  0.35259988  0.25424347  0.00873564    -0.14890
F960        F  0.39846419  0.20096667  0.06424142    -0.12520
C961        C  0.22491200  0.30870618  0.07771325     0.25490
C962        C  0.20442120  0.29017286  0.03928829    -0.22620
C963        C  0.15778645  0.28788293  0.03805722     0.20390
C964        C  0.13235722  0.31184657  0.06862243     0.25430
C965        C  0.15284489  0.33779940  0.10320003    -0.22570
C966        C  0.19849865  0.32754498  0.11179054     0.20330
F967        F  0.21826692  0.33670410  0.15213478    -0.12520
F968        F  0.27002555  0.31051736  0.08175306    -0.14890
F969        F  0.08776327  0.30884905  0.06288150    -0.14890
F970        F  0.13650854  0.26459502  0.00496827    -0.12520
C971        C  0.31419461  0.20812711  0.88496235     0.25490
C972        C  0.33295009  0.16707734  0.90021151    -0.22620
C973        C  0.31828465  0.15169342  0.94313071     0.20390
C974        C  0.28347790  0.17239249  0.96503317     0.25430
C975        C  0.27496350  0.21765904  0.95673053    -0.22570
C976        C  0.29076722  0.23561791  0.91544344     0.20330
F977        F  0.28561750  0.27928026  0.90497097    -0.12520
F978        F  0.32146974  0.22345620  0.84223004    -0.14890
F979        F  0.26345375  0.15014522  0.99972319    -0.14890
F980        F  0.33652521  0.11662856  0.96529193    -0.12520
C981        C  0.54563873  0.64386150  0.67315653     0.25490
C982        C  0.59099577  0.65627857  0.66637652    -0.22620
C983        C  0.60910821  0.68688352  0.69771527     0.20390
C984        C  0.58137115  0.71203012  0.72588384     0.25430
C985        C  0.53440767  0.70485699  0.72586585    -0.22570
C986        C  0.52013584  0.66487729  0.70563941     0.20330
F987        F  0.48051174  0.64587366  0.71691102    -0.12520
F988        F  0.52711385  0.60680955  0.65456059    -0.14890
F989        F  0.60263575  0.73897450  0.75516791    -0.14890
F990        F  0.65395121  0.69394600  0.69960090    -0.12520
C991        C  0.63191045  0.57779662  0.70216990     0.25490
C992        C  0.65244719  0.60070823  0.66505541    -0.22620
C993        C  0.70012339  0.59625337  0.66254356     0.20390
C994        C  0.72201122  0.56287190  0.68737102     0.25430
C995        C  0.69993311  0.54150112  0.72304892    -0.22570
C996        C  0.65702336  0.55500519  0.73389927     0.20330
F997        F  0.63817419  0.54349786  0.77416142    -0.12520
F998        F  0.58748598  0.57739254  0.70979311    -0.14890
F999        F  0.76486273  0.55212659  0.67716897    -0.14890
F1000       F  0.72692879  0.62381199  0.63847312    -0.12520
C1001       C  0.68009862  0.64617505  0.57055477     0.25490
C1002       C  0.64978520  0.66400330  0.60252392    -0.22620
C1003       C  0.64341041  0.71123170  0.60081939     0.20390
C1004       C  0.67065102  0.73859545  0.57372381     0.25430
C1005       C  0.70307476  0.71988985  0.54561008    -0.22570
C1006       C  0.70830028  0.67348618  0.54551976     0.20330
F1007       F  0.73902810  0.65405289  0.51814842    -0.12520
F1008       F  0.68461143  0.60155223  0.56495191    -0.14890
F1009       F  0.66207796  0.78293372  0.57132030    -0.14890
F1010       F  0.60788423  0.73135547  0.62038405    -0.12520
C1011       C  0.41104754  0.30620221  0.63800893     0.25490
C1012       C  0.39038604  0.34165915  0.66180237    -0.22620
C1013       C  0.39631600  0.34112930  0.70995912     0.20390
C1014       C  0.42918078  0.31446188  0.73031702     0.25430
C1015       C  0.45088281  0.28111527  0.70570397    -0.22570
C1016       C  0.43743376  0.27458653  0.66053413     0.20330
F1017       F  0.44886034  0.23706918  0.63811157    -0.12520
F1018       F  0.40388679  0.30045651  0.59290940    -0.14890
F1019       F  0.44049769  0.32233603  0.77408482    -0.14890
F1020       F  0.37051210  0.36498690  0.73860041    -0.12520
C1021       C  0.36234875  0.43890278  0.69353176     0.25490
C1022       C  0.33653875  0.40969587  0.66670721    -0.22620
C1023       C  0.28901424  0.41326048  0.67051780     0.20390
C1024       C  0.26959214  0.44764939  0.69541709     0.25430
C1025       C  0.29583927  0.47461513  0.72358217    -0.22570
C1026       C  0.34213106  0.46671286  0.72493848     0.20330
F1027       F  0.36827624  0.48482303  0.75742827    -0.12520
F1028       F  0.40772810  0.43744340  0.69253262    -0.14890
F1029       F  0.22504325  0.45481315  0.69108116    -0.14890
F1030       F  0.26019130  0.38450750  0.65051531    -0.12520
C1031       C  0.30896505  0.31035938  0.61537379     0.25490
C1032       C  0.32669628  0.35261011  0.60382357    -0.22620
C1033       C  0.30379570  0.37569216  0.56885360     0.20390
C1034       C  0.27314624  0.35396106  0.54109658     0.25430
C1035       C  0.26476648  0.30786055  0.54543831    -0.22570
C1036       C  0.27698085  0.28962582  0.58796727     0.20330
F1037       F  0.24801657  0.26413963  0.61139314    -0.12520
F1038       F  0.31660844  0.29211314  0.65688534    -0.14890
F1039       F  0.24842181  0.37975974  0.51315593    -0.14890
F1040       F  0.30613008  0.42050851  0.56447526    -0.12520
C1041       C  0.65871843  0.45586641  0.28150360     0.25490
C1042       C  0.70535354  0.45761014  0.28614063    -0.22620
C1043       C  0.72597487  0.42983034  0.31807997     0.20390
C1044       C  0.70024191  0.40250605  0.34669261     0.25430
C1045       C  0.65307063  0.39893773  0.34107302    -0.22570
C1046       C  0.63299503  0.42795145  0.30897340     0.20330
F1047       F  0.58785294  0.42922315  0.30413029    -0.12520
F1048       F  0.63765908  0.48361982  0.25198457    -0.14890
F1049       F  0.72173437  0.38357500  0.38228916    -0.14890
F1050       F  0.77071055  0.43292642  0.32516374    -0.12520
C1051       C  0.63344195  0.32565645  0.44629192     0.25490
C1052       C  0.64738145  0.33492567  0.40126509    -0.22620
C1053       C  0.67914790  0.30520931  0.38271268     0.20390
C1054       C  0.70263658  0.27534473  0.41056134     0.25430
C1055       C  0.68965222  0.26892282  0.45647574    -0.22570
C1056       C  0.64842286  0.28790125  0.46850281     0.20330
F1057       F  0.62655053  0.27489031  0.50670124    -0.12520
F1058       F  0.60343863  0.35043198  0.46928246    -0.14890
F1059       F  0.73514659  0.25198241  0.39018831    -0.14890
F1060       F  0.68960917  0.30692169  0.33790738    -0.12520
C1061       C  0.53202185  0.28200742  0.33431916     0.25490
C1062       C  0.53265878  0.28483498  0.28711098    -0.22620
C1063       C  0.56735821  0.30819149  0.26568622     0.20390
C1064       C  0.59869865  0.33157838  0.29157975     0.25430
C1065       C  0.59287328  0.33638143  0.33937465    -0.22570
C1066       C  0.56078804  0.30773819  0.36007614     0.20330
F1067       F  0.55611605  0.30423587  0.40560420    -0.12520
F1068       F  0.50054267  0.25689910  0.35576337    -0.14890
F1069       F  0.63459356  0.34831994  0.26914803    -0.14890
F1070       F  0.56936204  0.31096461  0.21976892    -0.12520
C1071       C  0.41705360  0.64301630  0.29855566     0.25490
C1072       C  0.39588261  0.66575789  0.33483129    -0.22620
C1073       C  0.40889903  0.71120359  0.34093220     0.20390
C1074       C  0.44476855  0.72894409  0.31689368     0.25430
C1075       C  0.45958528  0.70878012  0.27709437    -0.22570
C1076       C  0.44230533  0.66661608  0.26636239     0.20330
F1077       F  0.45060593  0.64774660  0.22552169    -0.12520
F1078       F  0.41031157  0.59874752  0.29197256    -0.14890
F1079       F  0.46588766  0.76556626  0.33353656    -0.14890
F1080       F  0.38896365  0.73968496  0.36981482    -0.12520
C1081       C  0.35783779  0.69381791  0.43563442     0.25490
C1082       C  0.33677105  0.67312942  0.39782595    -0.22620
C1083       C  0.29300002  0.68836849  0.38732848     0.20390
C1084       C  0.26958733  0.71601260  0.41683751     0.25430
C1085       C  0.29072975  0.73586650  0.45437470    -0.22570
C1086       C  0.33661952  0.72738466  0.45998793     0.20330
F1087       F  0.36008335  0.74838487  0.49316340    -0.12520
F1088       F  0.40107246  0.68636973  0.44640662    -0.14890
F1089       F  0.22555001  0.71980240  0.40909389    -0.14890
F1090       F  0.27127516  0.67658815  0.34880770    -0.12520
C1091       C  0.31973600  0.61877134  0.29006507     0.25490
C1092       C  0.32727984  0.61223277  0.33755405    -0.22620
C1093       C  0.29771079  0.58176614  0.35906140     0.20390
C1094       C  0.27197330  0.55172208  0.33366266     0.25430
C1095       C  0.27334905  0.55205406  0.28591610    -0.22570
C1096       C  0.29545998  0.58762330  0.26442747     0.20330
F1097       F  0.29631925  0.59071163  0.21850495    -0.12520
F1098       F  0.33422791  0.65590432  0.26812485    -0.14890
F1099       F  0.24756347  0.52023733  0.35582000    -0.14890
F1100       F  0.29245572  0.58170807  0.40478319    -0.12520
C1101       C  0.72731632  0.70078537  0.43268520     0.25490
C1102       C  0.70165497  0.72603338  0.46273440    -0.22620
C1103       C  0.65509025  0.72540483  0.45855070     0.20390
C1104       C  0.63410377  0.69575170  0.42953414     0.25430
C1105       C  0.65906887  0.66783484  0.40026221    -0.22570
C1106       C  0.70647669  0.67377350  0.40029779     0.20330
F1107       F  0.73353022  0.65459480  0.36918058    -0.12520
F1108       F  0.77255764  0.70048977  0.43602982    -0.14890
F1109       F  0.58889552  0.69750863  0.42772990    -0.14890
F1110       F  0.62945155  0.75231547  0.48467133    -0.12520
C1111       C  0.60389928  0.70934965  0.32948475     0.25490
C1112       C  0.60299735  0.66207263  0.33516917    -0.22620
C1113       C  0.57402819  0.63779345  0.30663153     0.20390
C1114       C  0.54754263  0.65946173  0.27495121     0.25430
C1115       C  0.54214283  0.70596606  0.27626410    -0.22570
C1116       C  0.57121967  0.73080640  0.30360084     0.20330
F1117       F  0.56787749  0.77580749  0.30593116    -0.12520
F1118       F  0.63625935  0.73551114  0.34763808    -0.14890
F1119       F  0.52801405  0.63448660  0.24241097    -0.14890
F1120       F  0.57385235  0.59250530  0.30700726    -0.12520
C1121       C  0.69319589  0.57387270  0.36286158     0.25490
C1122       C  0.66615326  0.60552189  0.34024863    -0.22620
C1123       C  0.67109218  0.60815705  0.29205763     0.20390
C1124       C  0.69188930  0.57396725  0.26793565     0.25430
C1125       C  0.71338987  0.53949045  0.29123222    -0.22570
C1126       C  0.71662907  0.54187425  0.33871962     0.20330
F1127       F  0.74203729  0.51240391  0.36219601    -0.12520
F1128       F  0.69865936  0.57484778  0.40859281    -0.14890
F1129       F  0.68998140  0.57423162  0.22193066    -0.14890
F1130       F  0.65698404  0.64382476  0.26763040    -0.12520
C1131       C  0.29624022  0.39573056  0.30989732     0.25490
C1132       C  0.33616748  0.40902963  0.33214519    -0.22620
C1133       C  0.35413226  0.45083961  0.31853568     0.20390
C1134       C  0.33218460  0.47761849  0.28726368     0.25430
C1135       C  0.28704939  0.46991917  0.27606523    -0.22570
C1136       C  0.26954724  0.42735924  0.28716510     0.20330
F1137       F  0.22630684  0.41651380  0.27979470    -0.12520
F1138       F  0.28034259  0.35353661  0.31436853    -0.14890
F1139       F  0.35422896  0.51417089  0.27159400    -0.14890
F1140       F  0.39238247  0.46798490  0.33587664    -0.12520
C1141       C  0.34972032  0.31280009  0.42306731     0.25490
C1142       C  0.33122012  0.34884888  0.39774445    -0.22620
C1143       C  0.28683162  0.36104798  0.40873585     0.20390
C1144       C  0.26048861  0.33446077  0.43718255     0.25430
C1145       C  0.27880597  0.29818892  0.46109724    -0.22570
C1146       C  0.32382156  0.28787859  0.45378101     0.20330
F1147       F  0.34350761  0.25508700  0.47845674    -0.12520
F1148       F  0.39364809  0.30232591  0.41926209    -0.14890
F1149       F  0.21724815  0.34644118  0.44414348    -0.14890
F1150       F  0.26951763  0.40081486  0.39586157    -0.12520
C1151       C  0.45598326  0.34312750  0.28285186     0.25490
C1152       C  0.45093663  0.29680318  0.27851336    -0.22620
C1153       C  0.41299989  0.27685834  0.29821970     0.20390
C1154       C  0.38206007  0.30284516  0.32257645     0.25430
C1155       C  0.39186301  0.34801766  0.33412620    -0.22570
C1156       C  0.42952228  0.36727322  0.31253028     0.20330
F1157       F  0.44342316  0.40909823  0.32166540    -0.12520
F1158       F  0.49003543  0.36479740  0.26163939    -0.14890
F1159       F  0.34324504  0.28297075  0.33527221    -0.14890
F1160       F  0.40662698  0.23217073  0.29593478    -0.12520
C1161       C  0.64963414  0.45243959  0.71946760     0.25490
C1162       C  0.69601488  0.46004476  0.71838596    -0.22620
C1163       C  0.72065844  0.43961907  0.68388184     0.20390
C1164       C  0.70145293  0.40579093  0.65790097     0.25430
C1165       C  0.65411311  0.40014357  0.65674437    -0.22570
C1166       C  0.62879565  0.42824689  0.68523245     0.20330
F1167       F  0.58338821  0.42749452  0.68416051    -0.12520
F1168       F  0.62396704  0.46762710  0.75375987    -0.14890
F1169       F  0.73023977  0.37926648  0.63524473    -0.14890
F1170       F  0.76485643  0.44898056  0.67885265    -0.12520
C1171       C  0.57181238  0.30128900  0.63194174     0.25490
C1172       C  0.59726518  0.33469700  0.65435272    -0.22620
C1173       C  0.59435670  0.33466031  0.70252563     0.20390
C1174       C  0.55904806  0.31313143  0.72426766     0.25430
C1175       C  0.53476706  0.27966507  0.70225795    -0.22570
C1176       C  0.54488408  0.27152388  0.65649113     0.20330
F1177       F  0.52907831  0.23483151  0.63523622    -0.12520
F1178       F  0.57582758  0.29484106  0.58656757    -0.14890
F1179       F  0.54678245  0.32808629  0.76551314    -0.14890
F1180       F  0.62546020  0.35381269  0.72965352    -0.12520
C1181       C  0.68601736  0.35582792  0.56102816     0.25490
C1182       C  0.66196240  0.33741345  0.59807956    -0.22620
C1183       C  0.67073073  0.29179077  0.60865064     0.20390
C1184       C  0.69103519  0.26402525  0.57694251     0.25430
C1185       C  0.71061559  0.28228761  0.53789964    -0.22570
C1186       C  0.71205926  0.32891765  0.53319792     0.20330
F1187       F  0.73385955  0.34785480  0.49755516    -0.12520
F1188       F  0.68620767  0.40019473  0.55249894    -0.14890
F1189       F  0.68870926  0.21924534  0.58305178    -0.14890
F1190       F  0.65878561  0.27304705  0.64883839    -0.12520
C1191       C  0.42846241  0.70769615  0.63715827     0.25490
C1192       C  0.39510759  0.68005454  0.65696772    -0.22620
C1193       C  0.38570119  0.68903515  0.70339692     0.20390
C1194       C  0.41663265  0.71099212  0.73088525     0.25430
C1195       C  0.45484124  0.73140578  0.71217436    -0.22570
C1196       C  0.45761496  0.73309176  0.66437750     0.20330
F1197       F  0.49185465  0.75540780  0.64425323    -0.12520
F1198       F  0.43200078  0.71178108  0.59147014    -0.14890
F1199       F  0.41115064  0.70653218  0.77596984    -0.14890
F1200       F  0.34635387  0.67706755  0.72294990    -0.12520
C1201       C  0.28143020  0.67948224  0.53354723     0.25490
C1202       C  0.27927390  0.72603265  0.53728313    -0.22620
C1203       C  0.30042987  0.74652449  0.57399240     0.20390
C1204       C  0.32476832  0.72121068  0.60501789     0.25430
C1205       C  0.33397535  0.67508516  0.59698561    -0.22570
C1206       C  0.31063283  0.65500125  0.56041231     0.20330
F1207       F  0.31240463  0.61066694  0.55250018    -0.12520
F1208       F  0.25842140  0.65806052  0.50033664    -0.14890
F1209       F  0.33887194  0.74322905  0.64244550    -0.14890
F1210       F  0.30052649  0.79149676  0.57845462    -0.12520
C1211       C  0.36216159  0.59288147  0.69542958     0.25490
C1212       C  0.33888980  0.61473691  0.65978814    -0.22620
C1213       C  0.29207208  0.60567475  0.65675993     0.20390
C1214       C  0.27253205  0.57273342  0.68393526     0.25430
C1215       C  0.29489083  0.55656737  0.72234020    -0.22570
C1216       C  0.33883595  0.57070047  0.72978653     0.20330
F1217       F  0.35932034  0.56297061  0.77006903    -0.12520
F1218       F  0.40712375  0.59682861  0.69965455    -0.14890
F1219       F  0.23009708  0.55909885  0.67494577    -0.14890
F1220       F  0.26396029  0.62759869  0.62868939    -0.12520
loop_ 
_geom_bond_atom_site_label_1 
_geom_bond_atom_site_label_2 
_geom_bond_distance 
_geom_bond_site_symmetry_2 
_ccdc_geom_bond_type 
C1           C10   1.575       .  S
C1         C1192   1.579       .  S
C1         C1205   1.563       .  S
C1         C1212   1.567       .  S
N2            N3   1.327       .  A
N2            N8   1.316       .  A
N2          Mn31   2.250       .  S
N3           C10   1.365       .  A
N4            N6   1.317       .  A
N4            N5   1.325       .  A
N4          Mn20   2.233       .  S
N5           C11   1.361       .  A
N6            N7   1.327       .  A
N6          Mn31   2.255       .  S
N7           C11   1.363       .  A
N8            N9   1.329       .  A
N8          Mn20   2.245       .  S
N9           C10   1.360       .  A
C11          C50   1.570       .  S
N12          N18   1.316       .  A
N12          N13   1.324       .  A
N12         Mn42   2.237       .  S
N13          C21   1.359       .  A
N14          N15   1.318       .  A
N14          N16   1.318       .  A
N14         Mn20   2.221       .  S
N15          C22   1.357       .  A
N16          N17   1.325       .  A
N16         Mn42   2.220       .  S
N17          C22   1.358       .  A
N18          N19   1.324       .  A
N18         Mn20   2.216       .  S
N19          C21   1.359       .  A
Mn20        Cl44   2.565       .  S
C21          C49   1.568       .  S
C22          C53   1.535       .  S
N23          N24   1.325       .  A
N23          N29   1.317       .  A
N23         Mn31   2.247       .  S
N24          C32   1.363       .  A
N25          N27   1.319       .  A
N25          N26   1.326       .  A
N25         Mn43   2.224       .  S
N26          C33   1.358       .  A
N27          N28   1.321       .  A
N27         Mn31   2.241       .  S
N28          C33   1.360       .  A
N29          N30   1.323       .  A
N29         Mn43   2.196       .  S
N30          C32   1.353       .  A
Mn31        Cl44   2.558       .  S
C32          C48   1.541       .  S
C33          C52   1.555       .  S
N34          N35   1.323       .  A
N34          N40   1.316       .  A
N34         Mn42   2.227       .  S
N35          C45   1.360       .  A
N36          N37   1.322       .  A
N36          N38   1.316       .  A
N36         Mn43   2.221       .  S
N37          C46   1.358       .  A
N38          N39   1.322       .  A
N38         Mn42   2.215       .  S
N39          C46   1.359       .  A
N40          N41   1.327       .  A
N40         Mn43   2.227       .  S
N41          C45   1.359       .  A
Mn42        Cl44   2.558       .  S
Mn43        Cl44   2.562       .  S
C45          C47   1.561       .  S
C46          C51   1.547       .  S
C47        C1165   1.555       .  S
C47        C1172   1.572       .  S
C47        C1182   1.562       .  S
C48        C1132   1.566       .  S
C48        C1142   1.565       .  S
C48        C1155   1.568       .  S
C49        C1105   1.557       .  S
C49        C1112   1.553       .  S
C49        C1122   1.565       .  S
C50        C1072   1.568       .  S
C50        C1082   1.567       .  S
C50        C1092   1.583       .  S
C51        C1045   1.562       .  S
C51        C1052   1.554       .  S
C51        C1065   1.560       .  S
C52        C1012   1.581       .  S
C52        C1022   1.557       .  S
C52        C1032   1.556       .  S
C53         C982   1.553       .  S
C53         C992   1.577       .  S
C53        C1002   1.565       .  S
C54          C55   1.365       .  D
C54         C955   1.495   1_556  S
C54         C975   1.507       .  S
C55         C942   1.491       .  S
C55         C962   1.491   1_556  S
C56          C57   1.371   1_565  D
C56         C912   1.502   1_565  S
C56         C932   1.495       .  S
C57         C902   1.500   1_545  S
C57         C922   1.483       .  S
C58          C59   1.365       .  D
C58         C872   1.465   1_455  S
C58         C895   1.483       .  S
C59         C862   1.511       .  S
C59         C885   1.538   1_455  S
C60          C61   1.363       .  D
C60        C1062   1.482       .  S
C60        C1152   1.506       .  S
C61         C842   1.489       .  S
C61         C855   1.481       .  S
C62          C63   1.390       .  D
C62         C822   1.488       .  S
C62         C832   1.531       .  S
C63        C1035   1.543       .  S
C63        C1145   1.503       .  S
C64          C65   1.381       .  D
C64        C1095   1.509       .  S
C64        C1135   1.523       .  S
C65         C802   1.491       .  S
C65         C812   1.511       .  S
C66          C67   1.361       .  D
C66         C785   1.485   1_556  S
C66         C792   1.514       .  S
C67         C762   1.502   1_556  S
C67         C772   1.484       .  S
C68          C69   1.362       .  D
C68         C742   1.491       .  S
C68         C752   1.471   1_554  S
C69         C722   1.476       .  S
C69         C735   1.505   1_554  S
C70          C71   1.362       .  D
C70         C682   1.512   1_655  S
C70         C692   1.492       .  S
C71         C702   1.494       .  S
C71         C712   1.479   1_655  S
C72          C73   1.367       .  D
C72        C1042   1.488       .  S
C72        C1125   1.489       .  S
C73         C662   1.497       .  S
C73         C672   1.488       .  S
C74          C75   1.377       .  D
C74         C642   1.527       .  S
C74         C652   1.508       .  S
C75        C1025   1.499       .  S
C75        C1215   1.483       .  S
C76          C85   1.538       .  S
C76         C612   1.557       .  S
C76         C622   1.550       .  S
C76         C632   1.563       .  S
N77          N78   1.320       .  A
N77          N83   1.316       .  A
N77        Mn106   2.195       .  S
N78          C85   1.352       .  A
N79          N81   1.316       .  A
N79          N80   1.322       .  A
N79         Mn95   2.204   1_455  S
N80          C86   1.355       .  A
N81          N82   1.324       .  A
N81        Mn106   2.230   1_455  S
N82          C86   1.359       .  A
N83          N84   1.320       .  A
N83         Mn95   2.224       .  S
N84          C85   1.361       .  A
C86         C124   1.541       .  S
N87          N93   1.317       .  A
N87          N88   1.322       .  A
N87        Mn117   2.217   1_455  S
N88          C96   1.358       .  A
N89          N90   1.324       .  A
N89          N91   1.314       .  A
N89         Mn95   2.230   1_554  S
N90          C97   1.360       .  A
N91          N92   1.325       .  A
N91        Mn117   2.225       .  S
N92          C97   1.360       .  A
N93          N94   1.323       .  A
N93         Mn95   2.228   1_454  S
N94          C96   1.357       .  A
Mn95       Cl119   2.552       .  S
C96         C129   1.545       .  S
C97         C126   1.567       .  S
N98          N99   1.326       .  A
N98         N104   1.316       .  A
N98        Mn106   2.225   1_455  S
N99         C107   1.359       .  A
N100        N102   1.313       .  A
N100        N101   1.324       .  A
N100       Mn118   2.229       .  S
N101        C108   1.362       .  A
N102        N103   1.321       .  A
N102       Mn106   2.200       .  S
N103        C108   1.356       .  A
N104        N105   1.326       .  A
N104       Mn118   2.257   1_455  S
N105        C107   1.365       .  A
Mn106      Cl119   2.557       .  S
C107        C123   1.574       .  S
C108        C125   1.557       .  S
N109        N110   1.321       .  A
N109        N115   1.318       .  A
N109       Mn117   2.195       .  S
N110        C120   1.352       .  A
N111        N112   1.320       .  A
N111        N113   1.317       .  A
N111       Mn118   2.198   1_454  S
N112        C121   1.352       .  A
N113        N114   1.326       .  A
N113       Mn117   2.249   1_455  S
N114        C121   1.364       .  A
N115        N116   1.326       .  A
N115       Mn118   2.260   1_554  S
N116        C120   1.366       .  A
Mn117      Cl119   2.560   1_554  S
Mn118      Cl119   2.551       .  S
C120        C122   1.551       .  S
C121        C130   1.552       .  S
C122        C675   1.573       .  S
C122        C745   1.560       .  S
C122        C882   1.558       .  S
C123        C655   1.576       .  S
C123        C715   1.557       .  S
C123        C945   1.558       .  S
C124        C605   1.564       .  S
C124        C645   1.557       .  S
C124        C775   1.557       .  S
C125        C595   1.547       .  S
C125        C705   1.563       .  S
C125        C755   1.558       .  S
C126        C575   1.561       .  S
C126        C582   1.557       .  S
C126        C665   1.557       .  S
C127        C128   1.370       .  D
C127        C592   1.522       .  S
C127        C635   1.494       .  S
C128        C995   1.481       .  S
C128       C1162   1.486       .  S
C129        C565   1.571       .  S
C129        C765   1.598       .  S
C129        C815   1.568       .  S
C130        C805   1.567       .  S
C130        C865   1.558       .  S
C130        C965   1.570       .  S
C131        C132   1.362       .  D
C131        C545   1.498       .  S
C131        C552   1.489   1_545  S
C132        C522   1.491   1_545  S
C132        C532   1.482       .  S
C133        C134   1.375       .  D
C133       C1075   1.490       .  S
C133       C1115   1.492       .  S
C134        C502   1.491       .  S
C134        C515   1.502       .  S
C135        C136   1.377       .  D
C135       C1015   1.506       .  S
C135       C1175   1.496       .  S
C136        C482   1.485       .  S
C136        C495   1.505       .  S
C137        C158   1.571       .  S
C137        C475   1.566       .  S
C137        C492   1.563       .  S
C137        C732   1.570       .  S
N138        N139   1.323       .  A
N138        N144   1.317       .  A
N138       Mn167   2.216       .  S
N139        C146   1.358       .  A
N140        N142   1.318       .  A
N140        N141   1.326       .  A
N140       Mn156   2.257   1_565  S
N141        C147   1.362       .  A
N142        N143   1.335       .  A
N142       Mn167   2.263   1_554  S
N143        C147   1.366       .  A
N144        N145   1.323       .  A
N144       Mn156   2.229   1_566  S
N145        C146   1.360       .  A
C146        C186   1.548       .  S
C147        C183   1.587       .  S
N148        N154   1.319       .  A
N148        N149   1.326       .  A
N148       Mn178   2.248       .  S
N149        C157   1.360       .  A
N150        N151   1.326       .  A
N150        N152   1.317       .  A
N150       Mn156   2.252   1_556  S
N151        C158   1.362       .  A
N152        N153   1.326       .  A
N152       Mn178   2.227   1_556  S
N153        C158   1.360       .  A
N154        N155   1.326       .  A
N154       Mn156   2.235       .  S
N155        C157   1.360       .  A
Mn156      Cl180   2.565       .  S
C157        C191   1.572       .  S
N159        N160   1.320       .  A
N159        N165   1.319       .  A
N159       Mn167   2.223   1_554  S
N160        C168   1.354       .  A
N161        N163   1.314       .  A
N161        N162   1.329       .  A
N161       Mn179   2.209   1_565  S
N162        C169   1.358       .  A
N163        N164   1.320       .  A
N163       Mn167   2.236       .  S
N164        C169   1.362       .  A
N165        N166   1.332       .  A
N165       Mn179   2.266   1_564  S
N166        C168   1.367       .  A
Mn167      Cl180   2.563   1_566  S
C168        C187   1.569       .  S
C169        C184   1.551       .  S
N170        N171   1.326       .  A
N170        N176   1.316       .  A
N170       Mn178   2.245   1_556  S
N171        C181   1.364       .  A
N172        N173   1.326       .  A
N172        N174   1.318       .  A
N172       Mn179   2.251   1_554  S
N173        C182   1.362       .  A
N174        N175   1.325       .  A
N174       Mn178   2.226       .  S
N175        C182   1.359       .  A
N176        N177   1.323       .  A
N176       Mn179   2.212       .  S
N177        C181   1.355       .  A
Mn178      Cl180   2.573       .  S
Mn179      Cl180   2.564   1_556  S
C181        C185   1.555       .  S
C182        C190   1.571       .  S
C183        C452   1.572       .  S
C183        C462   1.569       .  S
C183        C512   1.561       .  S
C184        C442   1.566       .  S
C184        C555   1.599       .  S
C184        C795   1.568       .  S
C185        C485   1.556       .  S
C185        C542   1.578       .  S
C185        C972   1.559       .  S
C186        C412   1.555       .  S
C186        C422   1.553       .  S
C186        C432   1.569       .  S
C187        C505   1.570       .  S
C187        C782   1.561       .  S
C187        C905   1.559       .  S
C188        C189   1.375       .  D
C188        C985   1.530       .  S
C188       C1195   1.520       .  S
C189        C435   1.484       .  S
C189        C445   1.486       .  S
C190        C852   1.552       .  S
C190        C925   1.562       .  S
C190        C952   1.556       .  S
C191        C402   1.553       .  S
C191        C725   1.555       .  S
C191        C845   1.561       .  S
C192        C193   1.351       .  D
C192        C562   1.476   1_655  S
C192        C585   1.486       .  S
C193        C382   1.483   1_655  S
C193        C395   1.476       .  S
C194        C195   1.368       .  D
C194        C405   1.486       .  S
C194        C465   1.484   1_545  S
C195        C362   1.490   1_545  S
C195        C375   1.488       .  S
C196        C197   1.371       .  D
C196       C1055   1.532       .  S
C196       C1185   1.497       .  S
C197        C342   1.482       .  S
C197        C355   1.518       .  S
C198        C199   1.373       .  D
C198        C325   1.474       .  S
C198        C335   1.500       .  S
C199       C1085   1.512       .  S
C199       C1202   1.492       .  S
C200        C209   1.563       .  S
C200        C345   1.560       .  S
C200        C372   1.572       .  S
C200        C875   1.554       .  S
N201        N202   1.320       .  A
N201        N207   1.314       .  A
N201       Mn230   2.215       .  S
N202        C209   1.355       .  A
N203        N205   1.314       .  A
N203        N204   1.325       .  A
N203       Mn219   2.214   1_455  S
N204        C210   1.357       .  A
N205        N206   1.324       .  A
N205       Mn230   2.230   1_455  S
N206        C210   1.361       .  A
N207        N208   1.326       .  A
N207       Mn219   2.238       .  S
N208        C209   1.364       .  A
C210        C253   1.542       .  S
N211        N217   1.317       .  A
N211        N212   1.323       .  A
N211       Mn241   2.231   1_455  S
N212        C220   1.361       .  A
N213        N214   1.323       .  A
N213        N215   1.317       .  A
N213       Mn219   2.218       .  S
N214        C221   1.357       .  A
N215        N216   1.325       .  A
N215       Mn241   2.223       .  S
N216        C221   1.359       .  A
N217        N218   1.321       .  A
N217       Mn219   2.212   1_455  S
N218        C220   1.356       .  A
Mn219      Cl243   2.555       .  S
C220        C254   1.546       .  S
C221        C249   1.543       .  S
N222        N223   1.325       .  A
N222        N228   1.317       .  A
N222       Mn230   2.227   1_465  S
N223        C231   1.357       .  A
N224        N226   1.314       .  A
N224        N225   1.316       .  A
N224       Mn242   2.220       .  S
N225        C232   1.354       .  A
N226        N227   1.329       .  A
N226       Mn230   2.221   1_565  S
N227        C232   1.362       .  A
N228        N229   1.323       .  A
N228       Mn242   2.239   1_455  S
N229        C231   1.362       .  A
Mn230      Cl243   2.556       .  S
C231        C247   1.563       .  S
C232        C246   1.557       .  S
N233        N234   1.323       .  A
N233        N239   1.319       .  A
N233       Mn241   2.242   1_565  S
N234        C244   1.357       .  A
N235        N236   1.324       .  A
N235        N237   1.315       .  A
N235       Mn242   2.215   1_455  S
N236        C245   1.359       .  A
N237        N238   1.325       .  A
N237       Mn241   2.238   1_465  S
N238        C245   1.360       .  A
N239        N240   1.335       .  A
N239       Mn242   2.286       .  S
N240        C244   1.370       .  A
Mn241      Cl243   2.556       .  S
Mn242      Cl243   2.568   1_565  S
C244        C250   1.583       .  S
C245        C248   1.566       .  S
C246        C312   1.565       .  S
C246        C365   1.553       .  S
C246        C392   1.547       .  S
C247        C322   1.553       .  S
C247        C385   1.562       .  S
C247        C935   1.571       .  S
C248        C302   1.552       .  S
C248        C332   1.558       .  S
C248        C525   1.565       .  S
C249        C292   1.559       .  S
C249        C352   1.557       .  S
C249        C695   1.557       .  S
C250        C262   1.562       .  S
C250        C272   1.586       .  S
C250        C285   1.568       .  S
C251        C252   1.365       .  D
C251       C1005   1.484       .  S
C251       C1102   1.486       .  S
C252        C282   1.513       .  S
C252        C315   1.500       .  S
C253        C835   1.566       .  S
C253        C892   1.554       .  S
C253        C915   1.553       .  S
C254        C535   1.563       .  S
C254        C685   1.560       .  S
C254        C825   1.572       .  S
C255        C256   1.364       .  D
C255        C602   1.503   1_655  S
C255        C625   1.516       .  S
C256        C265   1.479       .  S
C256        C305   1.483   1_655  S
C257        C258   1.363       .  D
C257        C415   1.481   1_545  S
C257        C472   1.485       .  S
C258        C275   1.502   1_545  S
C258        C295   1.493       .  S
C259        C260   1.374       .  D
C259        C572   1.494   1_556  S
C259        C615   1.479       .  S
C260        C425   1.539       .  S
C260        C455   1.512   1_556  S
C261        C262   1.425       .  A
C261        C266   1.396       .  A
C261        F268   1.357       .  S
C262        C263   1.425       .  A
C263        C264   1.392       .  A
C263        F270   1.352       .  S
C264        C265   1.398       .  A
C264        F269   1.359       .  S
C265        C266   1.399       .  A
C266        F267   1.355       .  S
C271        C272   1.426       .  A
C271        C276   1.398       .  A
C271        F278   1.357       .  S
C272        C273   1.437       .  A
C273        C274   1.400       .  A
C273        F280   1.354       .  S
C274        C275   1.399       .  A
C274        F279   1.357       .  S
C275        C276   1.403       .  A
C276        F277   1.359   1_565  S
C281        C282   1.405       .  A
C281        C286   1.402       .  A
C281        F288   1.355       .  S
C282        C283   1.415       .  A
C283        C284   1.404       .  A
C283        F290   1.358       .  S
C284        C285   1.412       .  A
C284        F289   1.358       .  S
C285        C286   1.431       .  A
C286        F287   1.357       .  S
C291        C292   1.427       .  A
C291        C296   1.405       .  A
C291        F298   1.357       .  S
C292        C293   1.417       .  A
C293        C294   1.379       .  A
C293        F300   1.349       .  S
C294        C295   1.399       .  A
C294        F299   1.359       .  S
C295        C296   1.405       .  A
C296        F297   1.356       .  S
C301        C302   1.428       .  A
C301        C306   1.396       .  A
C301        F308   1.355       .  S
C302        C303   1.418       .  A
C303        C304   1.384       .  A
C303        F310   1.357       .  S
C304        C305   1.397       .  A
C304        F309   1.353       .  S
C305        C306   1.399       .  A
C306        F307   1.357       .  S
C311        C312   1.429       .  A
C311        C316   1.406       .  A
C311        F318   1.355       .  S
C312        C313   1.414       .  A
C313        C314   1.376       .  A
C313        F320   1.352       .  S
C314        C315   1.400       .  A
C314        F319   1.358       .  S
C315        C316   1.410       .  A
C316        F317   1.355       .  S
C321        C322   1.422       .  A
C321        C326   1.386       .  A
C321        F328   1.353       .  S
C322        C323   1.422       .  A
C323        C324   1.396       .  A
C323        F330   1.359       .  S
C324        C325   1.399       .  A
C324        F329   1.356       .  S
C325        C326   1.397       .  A
C326        F327   1.360       .  S
C331        C332   1.429       .  A
C331        C336   1.399       .  A
C331        F338   1.356       .  S
C332        C333   1.411       .  A
C333        C334   1.389       .  A
C333        F340   1.359       .  S
C334        C335   1.409       .  A
C334        F339   1.351       .  S
C335        C336   1.402       .  A
C336        F337   1.357       .  S
C341        C342   1.399       .  A
C341        C346   1.396       .  A
C341        F348   1.358       .  S
C342        C343   1.397       .  A
C343        C344   1.395       .  A
C343        F350   1.358       .  S
C344        C345   1.420       .  A
C344        F349   1.359       .  S
C345        C346   1.428       .  A
C346        F347   1.355       .  S
C351        C352   1.413       .  A
C351        C356   1.376       .  A
C351        F358   1.353       .  S
C352        C353   1.425       .  A
C353        C354   1.407       .  A
C353        F360   1.357       .  S
C354        C355   1.416       .  A
C354        F359   1.354       .  S
C355        C356   1.403       .  A
C356        F357   1.349       .  S
C361        C362   1.409       .  A
C361        C366   1.394       .  A
C361        F368   1.358   1_565  S
C362        C363   1.399       .  A
C363        C364   1.394       .  A
C363        F370   1.356       .  S
C364        C365   1.429       .  A
C364        F369   1.356       .  S
C365        C366   1.409       .  A
C366        F367   1.358       .  S
C371        C372   1.419       .  A
C371        C376   1.390       .  A
C371        F378   1.357       .  S
C372        C373   1.430       .  A
C373        C374   1.396       .  A
C373        F380   1.358       .  S
C374        C375   1.398       .  A
C374        F379   1.357       .  S
C375        C376   1.405       .  A
C376        F377   1.358       .  S
C381        C382   1.397       .  A
C381        C386   1.384       .  A
C381        F388   1.358   1_455  S
C382        C383   1.399       .  A
C383        C384   1.397       .  A
C383        F390   1.356       .  S
C384        C385   1.430       .  A
C384        F389   1.356       .  S
C385        C386   1.423       .  A
C386        F387   1.353       .  S
C391        C392   1.426       .  A
C391        C396   1.399       .  A
C391        F398   1.354       .  S
C392        C393   1.420       .  A
C393        C394   1.382       .  A
C393        F400   1.358       .  S
C394        C395   1.397       .  A
C394        F399   1.359       .  S
C395        C396   1.398       .  A
C396        F397   1.358       .  S
C401        C402   1.430       .  A
C401        C406   1.391       .  A
C401        F408   1.356       .  S
C402        C403   1.412       .  A
C403        C404   1.392       .  A
C403        F410   1.359       .  S
C404        C405   1.408       .  A
C404        F409   1.358       .  S
C405        C406   1.397       .  A
C406        F407   1.357       .  S
C411        C412   1.416       .  A
C411        C416   1.391       .  A
C411        F418   1.359       .  S
C412        C413   1.428       .  A
C413        C414   1.396       .  A
C413        F420   1.355       .  S
C414        C415   1.395       .  A
C414        F419   1.358       .  S
C415        C416   1.403       .  A
C416        F417   1.358       .  S
C421        C422   1.409       .  A
C421        C426   1.369       .  A
C421        F428   1.352       .  S
C422        C423   1.426       .  A
C423        C424   1.415       .  A
C423        F430   1.358       .  S
C424        C425   1.422       .  A
C424        F429   1.345       .  S
C425        C426   1.400       .  A
C426        F427   1.353       .  S
C431        C432   1.425       .  A
C431        C436   1.386       .  A
C431        F438   1.352       .  S
C432        C433   1.426       .  A
C433        C434   1.404       .  A
C433        F440   1.354       .  S
C434        C435   1.405       .  A
C434        F439   1.358       .  S
C435        C436   1.394       .  A
C436        F437   1.354       .  S
C441        C442   1.419       .  A
C441        C446   1.396       .  A
C441        F448   1.360       .  S
C442        C443   1.420       .  A
C443        C444   1.391       .  A
C443        F450   1.357       .  S
C444        C445   1.405       .  A
C444        F449   1.358       .  S
C445        C446   1.402       .  A
C446        F447   1.357       .  S
C451        C452   1.434       .  A
C451        C456   1.404       .  A
C451        F458   1.353       .  S
C452        C453   1.421       .  A
C453        C454   1.399       .  A
C453        F460   1.358       .  S
C454        C455   1.400       .  A
C454        F459   1.359       .  S
C455        C456   1.398       .  A
C456        F457   1.357       .  S
C461        C462   1.436       .  A
C461        C466   1.397       .  A
C461        F468   1.355       .  S
C462        C463   1.419       .  A
C463        C464   1.390       .  A
C463        F470   1.359       .  S
C464        C465   1.403       .  A
C464        F469   1.358       .  S
C465        C466   1.393       .  A
C466        F467   1.358       .  S
C471        C472   1.402       .  A
C471        C476   1.389       .  A
C471        F478   1.357       .  S
C472        C473   1.398       .  A
C473        C474   1.399       .  A
C473        F480   1.357       .  S
C474        C475   1.430       .  A
C474        F479   1.356       .  S
C475        C476   1.418       .  A
C476        F477   1.359       .  S
C481        C482   1.401       .  A
C481        C486   1.396       .  A
C481        F488   1.357       .  S
C482        C483   1.404       .  A
C483        C484   1.396       .  A
C483        F490   1.356       .  S
C484        C485   1.420       .  A
C484        F489   1.358       .  S
C485        C486   1.416       .  A
C486        F487   1.358       .  S
C491        C492   1.422       .  A
C491        C496   1.398       .  A
C491        F498   1.353       .  S
C492        C493   1.418       .  A
C493        C494   1.400       .  A
C493        F500   1.359       .  S
C494        C495   1.408       .  A
C494        F499   1.353       .  S
C495        C496   1.406       .  A
C496        F497   1.351       .  S
C501        C502   1.400       .  A
C501        C506   1.391       .  A
C501        F508   1.349       .  S
C502        C503   1.400       .  A
C503        C504   1.394       .  A
C503        F510   1.359       .  S
C504        C505   1.427       .  A
C504        F509   1.358       .  S
C505        C506   1.427       .  A
C506        F507   1.355       .  S
C511        C512   1.429       .  A
C511        C516   1.397       .  A
C511        F518   1.357       .  S
C512        C513   1.410       .  A
C513        C514   1.395       .  A
C513        F520   1.358       .  S
C514        C515   1.414       .  A
C514        F519   1.357       .  S
C515        C516   1.402       .  A
C516        F517   1.356       .  S
C521        C522   1.405       .  A
C521        C526   1.393       .  A
C521        F528   1.356       .  S
C522        C523   1.398       .  A
C523        C524   1.393       .  A
C523        F530   1.352       .  S
C524        C525   1.427       .  A
C524        F529   1.357       .  S
C525        C526   1.418       .  A
C526        F527   1.358       .  S
C531        C532   1.398       .  A
C531        C536   1.399       .  A
C531        F538   1.358       .  S
C532        C533   1.402       .  A
C533        C534   1.393       .  A
C533        F540   1.358       .  S
C534        C535   1.419       .  A
C534        F539   1.359       .  S
C535        C536   1.424       .  A
C536        F537   1.355       .  S
C541        C542   1.431       .  A
C541        C546   1.409       .  A
C541        F548   1.356       .  S
C542        C543   1.420       .  A
C543        C544   1.386       .  A
C543        F550   1.348       .  S
C544        C545   1.399       .  A
C544        F549   1.353       .  S
C545        C546   1.402       .  A
C546        F547   1.356       .  S
C551        C552   1.389       .  A
C551        C556   1.397       .  A
C551        F558   1.359       .  S
C552        C553   1.395       .  A
C553        C554   1.399       .  A
C553        F560   1.358       .  S
C554        C555   1.429       .  A
C554        F559   1.351       .  S
C555        C556   1.440       .  A
C556        F557   1.344       .  S
C561        C562   1.398       .  A
C561        C566   1.383       .  A
C561        F568   1.359   1_455  S
C562        C563   1.398       .  A
C563        C564   1.399       .  A
C563        F570   1.358       .  S
C564        C565   1.423       .  A
C564        F569   1.357       .  S
C565        C566   1.411       .  A
C566        F567   1.352       .  S
C571        C572   1.399       .  A
C571        C576   1.394       .  A
C571        F578   1.355       .  S
C572        C573   1.403       .  A
C573        C574   1.393       .  A
C573        F580   1.354       .  S
C574        C575   1.421       .  A
C574        F579   1.359       .  S
C575        C576   1.426       .  A
C576        F577   1.355       .  S
C581        C582   1.417       .  A
C581        C586   1.387       .  A
C581        F588   1.356       .  S
C582        C583   1.428       .  A
C583        C584   1.396       .  A
C583        F590   1.356       .  S
C584        C585   1.400       .  A
C584        F589   1.357       .  S
C585        C586   1.401       .  A
C586        F587   1.356       .  S
C591        C592   1.416       .  A
C591        C596   1.395       .  A
C591        F598   1.358       .  S
C592        C593   1.410       .  A
C593        C594   1.394       .  A
C593        F600   1.341       .  S
C594        C595   1.417       .  A
C594        F599   1.357       .  S
C595        C596   1.416       .  A
C596        F597   1.358       .  S
C601        C602   1.401       .  A
C601        C606   1.395       .  A
C601        F608   1.359       .  S
C602        C603   1.403       .  A
C603        C604   1.405       .  A
C603        F610   1.358       .  S
C604        C605   1.424       .  A
C604        F609   1.355       .  S
C605        C606   1.422       .  A
C606        F607   1.358       .  S
C611        C612   1.420       .  A
C611        C616   1.396       .  A
C611        F618   1.357       .  S
C612        C613   1.419       .  A
C613        C614   1.394       .  A
C613        F620   1.359       .  S
C614        C615   1.401       .  A
C614        F619   1.358       .  S
C615        C616   1.405       .  A
C616        F617   1.358       .  S
C621        C622   1.418       .  A
C621        C626   1.377       .  A
C621        F628   1.349       .  S
C622        C623   1.416       .  A
C623        C624   1.401       .  A
C623        F630   1.358       .  S
C624        C625   1.418       .  A
C624        F629   1.342       .  S
C625        C626   1.402       .  A
C626        F627   1.355       .  S
C631        C632   1.422       .  A
C631        C636   1.390       .  A
C631        F638   1.351       .  S
C632        C633   1.424       .  A
C633        C634   1.395       .  A
C633        F640   1.357       .  S
C634        C635   1.402       .  A
C634        F639   1.354       .  S
C635        C636   1.398       .  A
C636        F637   1.359       .  S
C641        C642   1.410       .  A
C641        C646   1.386       .  A
C641        F648   1.358       .  S
C642        C643   1.418       .  A
C643        C644   1.404       .  A
C643        F650   1.344       .  S
C644        C645   1.416       .  A
C644        F649   1.358       .  S
C645        C646   1.421       .  A
C646        F647   1.355       .  S
C651        C652   1.401       .  A
C651        C656   1.401       .  A
C651        F658   1.357       .  S
C652        C653   1.406       .  A
C653        C654   1.399       .  A
C653        F660   1.358       .  S
C654        C655   1.421       .  A
C654        F659   1.357       .  S
C655        C656   1.433       .  A
C656        F657   1.356       .  S
C661        C662   1.400       .  A
C661        C666   1.393       .  A
C661        F668   1.356       .  S
C662        C663   1.411       .  A
C663        C664   1.396       .  A
C663        F670   1.358       .  S
C664        C665   1.413       .  A
C664        F669   1.358       .  S
C665        C666   1.428       .  A
C666        F667   1.357       .  S
C671        C672   1.398       .  A
C671        C676   1.403       .  A
C671        F678   1.357       .  S
C672        C673   1.400       .  A
C673        C674   1.389       .  A
C673        F680   1.359       .  S
C674        C675   1.420       .  A
C674        F679   1.352       .  S
C675        C676   1.433       .  A
C676        F677   1.356       .  S
C681        C682   1.400       .  A
C681        C686   1.373       .  A
C681        F688   1.353       .  S
C682        C683   1.414       .  A
C683        C684   1.415       .  A
C683        F690   1.354       .  S
C684        C685   1.428       .  A
C684        F689   1.357       .  S
C685        C686   1.416       .  A
C686        F687   1.351       .  S
C691        C692   1.399       .  A
C691        C696   1.398       .  A
C691        F698   1.359       .  S
C692        C693   1.403       .  A
C693        C694   1.395       .  A
C693        F700   1.358       .  S
C694        C695   1.419       .  A
C694        F699   1.358       .  S
C695        C696   1.420       .  A
C696        F697   1.357       .  S
C701        C702   1.403       .  A
C701        C706   1.394       .  A
C701        F708   1.358       .  S
C702        C703   1.402       .  A
C703        C704   1.397       .  A
C703        F710   1.356       .  S
C704        C705   1.425       .  A
C704        F709   1.356       .  S
C705        C706   1.416       .  A
C706        F707   1.356       .  S
C711        C712   1.398       .  A
C711        C716   1.400       .  A
C711        F718   1.357       .  S
C712        C713   1.399       .  A
C713        C714   1.386       .  A
C713        F720   1.359       .  S
C714        C715   1.420       .  A
C714        F719   1.356       .  S
C715        C716   1.428       .  A
C716        F717   1.355       .  S
C721        C722   1.399       .  A
C721        C726   1.387       .  A
C721        F728   1.359       .  S
C722        C723   1.397       .  A
C723        C724   1.396       .  A
C723        F730   1.357       .  S
C724        C725   1.430       .  A
C724        F729   1.356       .  S
C725        C726   1.420       .  A
C726        F727   1.354       .  S
C731        C732   1.416       .  A
C731        C736   1.395       .  A
C731        F738   1.354       .  S
C732        C733   1.431       .  A
C733        C734   1.399       .  A
C733        F740   1.357       .  S
C734        C735   1.401       .  A
C734        F739   1.356       .  S
C735        C736   1.409       .  A
C736        F737   1.357   1_556  S
C741        C742   1.403       .  A
C741        C746   1.390       .  A
C741        F748   1.358       .  S
C742        C743   1.403       .  A
C743        C744   1.408       .  A
C743        F750   1.358       .  S
C744        C745   1.424       .  A
C744        F749   1.355       .  S
C745        C746   1.417       .  A
C746        F747   1.359       .  S
C751        C752   1.391       .  A
C751        C756   1.388       .  A
C751        F758   1.359       .  S
C752        C753   1.399       .  A
C753        C754   1.387       .  A
C753        F760   1.357       .  S
C754        C755   1.419       .  A
C754        F759   1.359       .  S
C755        C756   1.434       .  A
C756        F757   1.353       .  S
C761        C762   1.399       .  A
C761        C766   1.395       .  A
C761        F768   1.350       .  S
C762        C763   1.392       .  A
C763        C764   1.395       .  A
C763        F770   1.360       .  S
C764        C765   1.433       .  A
C764        F769   1.339       .  S
C765        C766   1.436       .  A
C766        F767   1.353       .  S
C771        C772   1.399       .  A
C771        C776   1.381       .  A
C771        F778   1.358       .  S
C772        C773   1.402       .  A
C773        C774   1.403       .  A
C773        F780   1.357       .  S
C774        C775   1.428       .  A
C774        F779   1.356       .  S
C775        C776   1.416       .  A
C776        F777   1.350       .  S
C781        C782   1.423       .  A
C781        C786   1.398       .  A
C781        F788   1.358       .  S
C782        C783   1.429       .  A
C783        C784   1.388       .  A
C783        F790   1.352       .  S
C784        C785   1.394       .  A
C784        F789   1.359       .  S
C785        C786   1.396       .  A
C786        F787   1.359       .  S
C791        C792   1.413       .  A
C791        C796   1.419       .  A
C791        F798   1.355       .  S
C792        C793   1.395       .  A
C793        C794   1.370       .  A
C793        F800   1.352       .  S
C794        C795   1.418       .  A
C794        F799   1.348       .  S
C795        C796   1.433       .  A
C796        F797   1.357       .  S
C801        C802   1.405       .  A
C801        C806   1.401       .  A
C801        F808   1.358       .  S
C802        C803   1.398       .  A
C803        C804   1.400       .  A
C803        F810   1.358       .  S
C804        C805   1.422       .  A
C804        F809   1.357       .  S
C805        C806   1.421       .  A
C806        F807   1.357       .  S
C811        C812   1.407       .  A
C811        C816   1.402       .  A
C811        F818   1.355       .  S
C812        C813   1.414       .  A
C813        C814   1.392       .  A
C813        F820   1.352       .  S
C814        C815   1.413       .  A
C814        F819   1.359       .  S
C815        C816   1.426       .  A
C816        F817   1.358       .  S
C821        C822   1.393       .  A
C821        C826   1.394       .  A
C821        F828   1.359       .  S
C822        C823   1.404       .  A
C823        C824   1.398       .  A
C823        F830   1.359       .  S
C824        C825   1.424       .  A
C824        F829   1.355       .  S
C825        C826   1.429       .  A
C826        F827   1.350       .  S
C831        C832   1.417       .  A
C831        C836   1.398       .  A
C831        F838   1.354       .  S
C832        C833   1.412       .  A
C833        C834   1.402       .  A
C833        F840   1.343       .  S
C834        C835   1.421       .  A
C834        F839   1.357       .  S
C835        C836   1.412       .  A
C836        F837   1.351       .  S
C841        C842   1.401       .  A
C841        C846   1.391       .  A
C841        F848   1.358       .  S
C842        C843   1.399       .  A
C843        C844   1.398       .  A
C843        F850   1.357       .  S
C844        C845   1.429       .  A
C844        F849   1.355       .  S
C845        C846   1.419       .  A
C846        F847   1.359       .  S
C851        C852   1.412       .  A
C851        C856   1.388       .  A
C851        F858   1.359       .  S
C852        C853   1.430       .  A
C853        C854   1.394       .  A
C853        F860   1.356       .  S
C854        C855   1.396       .  A
C854        F859   1.357       .  S
C855        C856   1.407       .  A
C856        F857   1.358       .  S
C861        C862   1.403       .  A
C861        C866   1.392       .  A
C861        F868   1.360   1_455  S
C862        C863   1.410       .  A
C863        C864   1.403       .  A
C863        F870   1.350       .  S
C864        C865   1.420       .  A
C864        F869   1.357       .  S
C865        C866   1.421       .  A
C866        F867   1.354       .  S
C871        C872   1.395       .  A
C871        C876   1.384       .  A
C871        F878   1.354       .  S
C872        C873   1.396       .  A
C873        C874   1.390       .  A
C873        F880   1.359       .  S
C874        C875   1.428       .  A
C874        F879   1.355       .  S
C875        C876   1.423       .  A
C876        F877   1.356       .  S
C881        C882   1.414       .  A
C881        C886   1.403       .  A
C881        F888   1.358       .  S
C882        C883   1.424       .  A
C883        C884   1.391       .  A
C883        F890   1.352       .  S
C884        C885   1.404       .  A
C884        F889   1.359   1_655  S
C885        C886   1.420       .  A
C886        F887   1.344       .  S
C891        C892   1.417       .  A
C891        C896   1.388       .  A
C891        F898   1.358       .  S
C892        C893   1.420       .  A
C893        C894   1.401       .  A
C893        F900   1.358       .  S
C894        C895   1.404       .  A
C894        F899   1.357       .  S
C895        C896   1.401       .  A
C896        F897   1.358       .  S
C901        C902   1.414       .  A
C901        C906   1.395       .  A
C901        F908   1.357       .  S
C902        C903   1.404       .  A
C903        C904   1.395       .  A
C903        F910   1.355       .  S
C904        C905   1.424       .  A
C904        F909   1.358       .  S
C905        C906   1.410       .  A
C906        F907   1.358       .  S
C911        C912   1.408       .  A
C911        C916   1.403       .  A
C911        F918   1.355       .  S
C912        C913   1.405       .  A
C913        C914   1.385       .  A
C913        F920   1.358   1_545  S
C914        C915   1.415       .  A
C914        F919   1.353       .  S
C915        C916   1.423       .  A
C916        F917   1.356       .  S
C921        C922   1.397       .  A
C921        C926   1.398       .  A
C921        F928   1.358       .  S
C922        C923   1.401       .  A
C923        C924   1.391       .  A
C923        F930   1.358       .  S
C924        C925   1.418       .  A
C924        F929   1.358       .  S
C925        C926   1.431       .  A
C926        F927   1.356       .  S
C931        C932   1.401       .  A
C931        C936   1.397       .  A
C931        F938   1.357       .  S
C932        C933   1.407       .  A
C933        C934   1.396       .  A
C933        F940   1.358       .  S
C934        C935   1.416       .  A
C934        F939   1.357       .  S
C935        C936   1.429       .  A
C936        F937   1.357       .  S
C941        C942   1.402       .  A
C941        C946   1.400       .  A
C941        F948   1.357       .  S
C942        C943   1.406       .  A
C943        C944   1.392       .  A
C943        F950   1.359       .  S
C944        C945   1.414       .  A
C944        F949   1.359       .  S
C945        C946   1.429       .  A
C946        F947   1.356       .  S
C951        C952   1.427       .  A
C951        C956   1.397       .  A
C951        F958   1.356       .  S
C952        C953   1.420       .  A
C953        C954   1.390       .  A
C953        F960   1.355       .  S
C954        C955   1.401       .  A
C954        F959   1.359       .  S
C955        C956   1.404       .  A
C956        F957   1.357       .  S
C961        C962   1.404       .  A
C961        C966   1.401       .  A
C961        F968   1.356       .  S
C962        C963   1.398       .  A
C963        C964   1.385       .  A
C963        F970   1.359       .  S
C964        C965   1.423       .  A
C964        F969   1.348       .  S
C965        C966   1.424       .  A
C966        F967   1.357       .  S
C971        C972   1.427       .  A
C971        C976   1.411       .  A
C971        F978   1.357       .  S
C972        C973   1.415       .  A
C973        C974   1.377       .  A
C973        F980   1.353       .  S
C974        C975   1.404       .  A
C974        F979   1.358       .  S
C975        C976   1.410       .  A
C976        F977   1.355       .  S
C981        C982   1.420       .  A
C981        C986   1.381       .  A
C981        F988   1.358       .  S
C982        C983   1.412       .  A
C983        C984   1.399       .  A
C983        F990   1.359       .  S
C984        C985   1.421       .  A
C984        F989   1.344       .  S
C985        C986   1.407       .  A
C986        F987   1.355       .  S
C991        C992   1.428       .  A
C991        C996   1.381       .  A
C991        F998   1.348       .  S
C992        C993   1.436       .  A
C993        C994   1.403       .  A
C993       F1000   1.350       .  S
C994        C995   1.395       .  A
C994        F999   1.358       .  S
C995        C996   1.386       .  A
C996        F997   1.357       .  S
C1001      C1002   1.416       .  A
C1001      C1006   1.386       .  A
C1001      F1008   1.358       .  S
C1002      C1003   1.432       .  A
C1003      C1004   1.403       .  A
C1003      F1010   1.355       .  S
C1004      C1005   1.397       .  A
C1004      F1009   1.358       .  S
C1005      C1006   1.402       .  A
C1006      F1007   1.358       .  S
C1011      C1012   1.421       .  A
C1011      C1016   1.402       .  A
C1011      F1018   1.358       .  S
C1012      C1013   1.431       .  A
C1013      C1014   1.404       .  A
C1013      F1020   1.353       .  S
C1014      C1015   1.400       .  A
C1014      F1019   1.355       .  S
C1015      C1016   1.405       .  A
C1016      F1017   1.353       .  S
C1021      C1022   1.411       .  A
C1021      C1026   1.389       .  A
C1021      F1028   1.359       .  S
C1022      C1023   1.431       .  A
C1023      C1024   1.397       .  A
C1023      F1030   1.354       .  S
C1024      C1025   1.400       .  A
C1024      F1029   1.357       .  S
C1025      C1026   1.407       .  A
C1026      F1027   1.351       .  S
C1031      C1032   1.414       .  A
C1031      C1036   1.398       .  A
C1031      F1038   1.358       .  S
C1032      C1033   1.418       .  A
C1033      C1034   1.391       .  A
C1033      F1040   1.353       .  S
C1034      C1035   1.411       .  A
C1034      F1039   1.351       .  S
C1035      C1036   1.415       .  A
C1036      F1037   1.344       .  S
C1041      C1042   1.403       .  A
C1041      C1046   1.393       .  A
C1041      F1048   1.359       .  S
C1042      C1043   1.400       .  A
C1043      C1044   1.403       .  A
C1043      F1050   1.358       .  S
C1044      C1045   1.425       .  A
C1044      F1049   1.355       .  S
C1045      C1046   1.419       .  A
C1046      F1047   1.359       .  S
C1051      C1052   1.418       .  A
C1051      C1056   1.383       .  A
C1051      F1058   1.352       .  S
C1052      C1053   1.417       .  A
C1053      C1054   1.404       .  A
C1053      F1060   1.358       .  S
C1054      C1055   1.421       .  A
C1054      F1059   1.345       .  S
C1055      C1056   1.407       .  A
C1056      F1057   1.358       .  S
C1061      C1062   1.394       .  A
C1061      C1066   1.383       .  A
C1061      F1068   1.359       .  S
C1062      C1063   1.400       .  A
C1063      C1064   1.398       .  A
C1063      F1070   1.357       .  S
C1064      C1065   1.428       .  A
C1064      F1069   1.356       .  S
C1065      C1066   1.423       .  A
C1066      F1067   1.353       .  S
C1071      C1072   1.421       .  A
C1071      C1076   1.402       .  A
C1071      F1078   1.358       .  S
C1072      C1073   1.429       .  A
C1073      C1074   1.390       .  A
C1073      F1080   1.350       .  S
C1074      C1075   1.395       .  A
C1074      F1079   1.359       .  S
C1075      C1076   1.403       .  A
C1076      F1077   1.356       .  S
C1081      C1082   1.424       .  A
C1081      C1086   1.394       .  A
C1081      F1088   1.351       .  S
C1082      C1083   1.423       .  A
C1083      C1084   1.395       .  A
C1083      F1090   1.356       .  S
C1084      C1085   1.408       .  A
C1084      F1089   1.343       .  S
C1085      C1086   1.407       .  A
C1086      F1087   1.359       .  S
C1091      C1092   1.431       .  A
C1091      C1096   1.405       .  A
C1091      F1098   1.357       .  S
C1092      C1093   1.418       .  A
C1093      C1094   1.402       .  A
C1093      F1100   1.357       .  S
C1094      C1095   1.408       .  A
C1094      F1099   1.358       .  S
C1095      C1096   1.403       .  A
C1096      F1097   1.357       .  S
C1101      C1102   1.400       .  A
C1101      C1106   1.400       .  A
C1101      F1108   1.358       .  S
C1102      C1103   1.399       .  A
C1103      C1104   1.385       .  A
C1103      F1110   1.358       .  S
C1104      C1105   1.420       .  A
C1104      F1109   1.355       .  S
C1105      C1106   1.429       .  A
C1106      F1107   1.355       .  S
C1111      C1112   1.429       .  A
C1111      C1116   1.398       .  A
C1111      F1118   1.356       .  S
C1112      C1113   1.411       .  A
C1113      C1114   1.386       .  A
C1113      F1120   1.360       .  S
C1114      C1115   1.407       .  A
C1114      F1119   1.351       .  S
C1115      C1116   1.401       .  A
C1116      F1117   1.357       .  S
C1121      C1122   1.415       .  A
C1121      C1126   1.390       .  A
C1121      F1128   1.358       .  S
C1122      C1123   1.430       .  A
C1123      C1124   1.399       .  A
C1123      F1130   1.357       .  S
C1124      C1125   1.399       .  A
C1124      F1129   1.357       .  S
C1125      C1126   1.405       .  A
C1126      F1127   1.356       .  S
C1131      C1132   1.420       .  A
C1131      C1136   1.410       .  A
C1131      F1138   1.357       .  S
C1132      C1133   1.420       .  A
C1133      C1134   1.388       .  A
C1133      F1140   1.354       .  S
C1134      C1135   1.409       .  A
C1134      F1139   1.358       .  S
C1135      C1136   1.416       .  A
C1136      F1137   1.351       .  S
C1141      C1142   1.426       .  A
C1141      C1146   1.404       .  A
C1141      F1148   1.358       .  S
C1142      C1143   1.417       .  A
C1143      C1144   1.397       .  A
C1143      F1150   1.356       .  S
C1144      C1145   1.408       .  A
C1144      F1149   1.360       .  S
C1145      C1146   1.400       .  A
C1146      F1147   1.358       .  S
C1151      C1152   1.405       .  A
C1151      C1156   1.388       .  A
C1151      F1158   1.358       .  S
C1152      C1153   1.406       .  A
C1153      C1154   1.411       .  A
C1153      F1160   1.356       .  S
C1154      C1155   1.429       .  A
C1154      F1159   1.356       .  S
C1155      C1156   1.415       .  A
C1156      F1157   1.349       .  S
C1161      C1162   1.406       .  A
C1161      C1166   1.392       .  A
C1161      F1168   1.351       .  S
C1162      C1163   1.401       .  A
C1163      C1164   1.396       .  A
C1163      F1170   1.359       .  S
C1164      C1165   1.427       .  A
C1164      F1169   1.353       .  S
C1165      C1166   1.415       .  A
C1166      F1167   1.359       .  S
C1171      C1172   1.422       .  A
C1171      C1176   1.401       .  A
C1171      F1178   1.358       .  S
C1172      C1173   1.423       .  A
C1173      C1174   1.392       .  A
C1173      F1180   1.355       .  S
C1174      C1175   1.399       .  A
C1174      F1179   1.349       .  S
C1175      C1176   1.405       .  A
C1176      F1177   1.353       .  S
C1181      C1182   1.418       .  A
C1181      C1186   1.394       .  A
C1181      F1188   1.354       .  S
C1182      C1183   1.429       .  A
C1183      C1184   1.396       .  A
C1183      F1190   1.357       .  S
C1184      C1185   1.401       .  A
C1184      F1189   1.357       .  S
C1185      C1186   1.407       .  A
C1186      F1187   1.359       .  S
C1191      C1192   1.420       .  A
C1191      C1196   1.409       .  A
C1191      F1198   1.356       .  S
C1192      C1193   1.424       .  A
C1193      C1194   1.395       .  A
C1193      F1200   1.358       .  S
C1194      C1195   1.407       .  A
C1194      F1199   1.345       .  S
C1195      C1196   1.412       .  A
C1196      F1197   1.358       .  S
C1201      C1202   1.404       .  A
C1201      C1206   1.390       .  A
C1201      F1208   1.359       .  S
C1202      C1203   1.397       .  A
C1203      C1204   1.394       .  A
C1203      F1210   1.357       .  S
C1204      C1205   1.433       .  A
C1204      F1209   1.355       .  S
C1205      C1206   1.419       .  A
C1206      F1207   1.353       .  S
C1211      C1212   1.420       .  A
C1211      C1216   1.396       .  A
C1211      F1218   1.356       .  S
C1212      C1213   1.429       .  A
C1213      C1214   1.397       .  A
C1213      F1220   1.351       .  S
C1214      C1215   1.401       .  A
C1214      F1219   1.359       .  S
C1215      C1216   1.398       .  A
C1216      F1217   1.356       .  S
