geometry optimzed in LAMMPS
_audit_creation_date              2020-12-01 
_audit_creation_method            'lammps2cif' 
_symmetry_space_group_name_H-M    'P1' 
_symmetry_Int_Tables_number       1 
_symmetry_cell_setting            triclinic 
loop_ 
_symmetry_equiv_pos_as_xyz 
  x,y,z 
_cell_length_a                    34.77465694 
_cell_length_b                    35.67254303749543 
_cell_length_c                    36.50981231172618 
_cell_angle_alpha                 94.06797615664077 
_cell_angle_beta                  90.13711567799918 
_cell_angle_gamma                 90.03702335105936 
loop_ 
_atom_site_label 
_atom_site_type_symbol 
_atom_site_fract_x 
_atom_site_fract_y 
_atom_site_fract_z 
_atom_site_charge 
C1          C  0.23657522  0.23087137  0.25099173    -0.00200
C2          C  0.10379138  0.45229713  0.43070643     0.32300
C3          C  0.10201659  0.51649177  0.47594511     0.32300
C4          C  0.12185201  0.48701772  0.41539438    -0.03900
C5          C  0.06341092  0.46642631  0.44204960    -0.04700
C6          C  0.12424657  0.45041569  0.46768093    -0.04600
C7          C  0.12092478  0.51988294  0.43846740    -0.03900
C8          C  0.06249680  0.49931781  0.46538745    -0.04700
C9          C  0.12334506  0.48321212  0.49078990    -0.04600
C10         C  0.13046931  0.54909972  0.41748586    -0.30000
N11         N  0.13751125  0.53459789  0.38283468     0.16500
C12         C  0.13199086  0.49693433  0.38099571    -0.30000
H13         H  0.13279622  0.47863513  0.35606255     0.18500
C14         C  0.02438112  0.50791337  0.47185859    -0.29000
N15         N  0.00231510  0.48143681  0.45303981     0.15200
C16         C  0.02582700  0.45602805  0.43471325    -0.29000
C17         C  0.13654358  0.47423880  0.52463851    -0.29200
N18         N  0.14558346  0.43720911  0.52234559     0.15800
H19         H  0.13700267  0.49249667  0.54961424     0.18400
C20         C  0.13799673  0.42220316  0.48795055    -0.29300
H21         H  0.13979589  0.39262566  0.47918867     0.18400
H22         H  0.01639501  0.43192903  0.41733571     0.18400
H23         H  0.12989043  0.57876713  0.42608489     0.18500
H24         H  0.01363027  0.53204299  0.48832647     0.18400
C25         C  0.23747375  0.73939637  0.65035583    -0.00200
C26         C  0.45236633  0.10181431  0.41875737     0.32300
C27         C  0.51239463  0.10012495  0.46655690     0.32300
C28         C  0.44773001  0.12574238  0.45501314    -0.03900
C29         C  0.46207336  0.06282831  0.43200010    -0.04700
C30         C  0.49120830  0.11536547  0.40455711    -0.04600
C31         C  0.47848519  0.12484043  0.47942930    -0.03900
C32         C  0.49302856  0.06225956  0.45649508    -0.04700
C33         C  0.52189350  0.11442238  0.42910409    -0.04600
C34         C  0.46690026  0.14261269  0.51217250    -0.30000
N35         N  0.43021323  0.15433157  0.50803011     0.16500
C36         C  0.41794950  0.14404181  0.47349816    -0.30000
H37         H  0.38893741  0.14745925  0.46347313     0.18500
C38         C  0.49741228  0.02602011  0.46613339    -0.29000
N39         N  0.46977102  0.00473468  0.44866100     0.15200
C40         C  0.44817084  0.02647732  0.42743689    -0.29000
C41         C  0.55341439  0.12941193  0.41269510    -0.29200
N42         N  0.54262777  0.13927289  0.37899009     0.15800
H43         H  0.58176420  0.13364899  0.42461568     0.18400
C44         C  0.50481089  0.13102747  0.37361870    -0.29300
H45         H  0.48836012  0.13676614  0.34944595     0.18400
H46         H  0.42486024  0.01643108  0.40966943     0.18400
H47         H  0.48292106  0.14470035  0.53770183     0.18500
H48         H  0.51927252  0.01564855  0.48397830     0.18400
C49         C  0.73085884  0.28556506  0.19445411    -0.00200
C50         C  0.25278700  0.26851007  0.73539278    -0.00200
C51         C  0.86080728  0.51033830  0.47604851     0.32300
C52         C  0.86213405  0.46238011  0.41475053     0.32300
C53         C  0.84628251  0.52639216  0.44090024    -0.03900
C54         C  0.90069281  0.49511103  0.46466420    -0.04700
C55         C  0.83666772  0.47456950  0.47795132    -0.04600
C56         C  0.84694420  0.50192932  0.40953841    -0.03900
C57         C  0.90146511  0.47038541  0.43319215    -0.04700
C58         C  0.83735054  0.44976688  0.44638385    -0.04600
C59         C  0.83521783  0.52194466  0.38061332    -0.30000
N60         N  0.82760724  0.55761376  0.39392137     0.16500
C61         C  0.83421548  0.56081194  0.43059242    -0.30000
H62         H  0.83151752  0.58644541  0.44810373     0.18500
C63         C  0.93954396  0.46197310  0.42596266    -0.29000
N64         N  0.96162755  0.48101355  0.45198501     0.15200
C65         C  0.93818447  0.50133398  0.47568368    -0.29000
C66         C  0.82805183  0.41467146  0.45742720    -0.29200
N67         N  0.82071598  0.41781743  0.49389656     0.15800
H68         H  0.82998647  0.38833306  0.44089269     0.18400
C69         C  0.82684687  0.45374916  0.50691197    -0.29300
H70         H  0.82769168  0.46324971  0.53573286     0.18400
H71         H  0.94762390  0.51985766  0.49869026     0.18400
H72         H  0.83342005  0.51175232  0.35201861     0.18500
H73         H  0.95033870  0.44459741  0.40274060     0.18400
C74         C  0.72147571  0.77813452  0.22960315    -0.00200
C75         C  0.72366503  0.20193194  0.66626893    -0.00200
C76         C  0.44879619  0.86963271  0.48021430     0.32300
C77         C  0.50863123  0.86883668  0.43231332     0.32300
C78         C  0.44405419  0.84351474  0.44521549    -0.03900
C79         C  0.45837973  0.90774045  0.46488815    -0.04700
C80         C  0.48772569  0.85728924  0.49521643    -0.04600
C81         C  0.47490575  0.84314085  0.42060917    -0.03900
C82         C  0.48918147  0.90692109  0.44029570    -0.04700
C83         C  0.51829507  0.85698381  0.47065190    -0.04600
C84         C  0.46111782  0.82964396  0.38684445    -0.30000
N85         N  0.42348775  0.82114877  0.39046260     0.16500
C86         C  0.41238589  0.83030443  0.42546545    -0.30000
H87         H  0.38295257  0.83025766  0.43503980     0.18500
C88         C  0.49513852  0.94279246  0.43033809    -0.29000
N89         N  0.46863296  0.96534310  0.44773822     0.15200
C90         C  0.44620614  0.94469653  0.46926047    -0.29000
C91         C  0.55004188  0.84368037  0.48812595    -0.29200
N92         N  0.53944013  0.83602792  0.52250546     0.15800
H93         H  0.57840057  0.83900386  0.47650545     0.18400
C94         C  0.50155352  0.84402653  0.52727184    -0.29300
H95         H  0.48521704  0.83967493  0.55181317     0.18400
H96         H  0.42402028  0.95596873  0.48762073     0.18400
H97         H  0.47640143  0.82904302  0.36100751     0.18500
H98         H  0.51781384  0.95218577  0.41291402     0.18400
C99         C  0.24043663  0.70262743  0.16818619    -0.00200
C100        C  0.73110297  0.68537141  0.69982112    -0.00200
C101        C  0.51731045  0.45761143  0.06671616     0.32300
C102        C  0.45533166  0.50386842  0.06737690     0.32300
C103        C  0.52038353  0.49348739  0.09237771    -0.03900
C104        C  0.50718881  0.47314195  0.02948486    -0.04700
C105        C  0.47916756  0.44042089  0.07867991    -0.04600
C106        C  0.48852455  0.51727621  0.09267597    -0.03900
C107        C  0.47517340  0.49681409  0.03015719    -0.04700
C108        C  0.44746732  0.46419434  0.07890056    -0.04600
C109        C  0.50028248  0.55190206  0.10784368    -0.30000
N110        N  0.53785300  0.54944227  0.11724866     0.16500
C111        C  0.55070819  0.51434462  0.10733244    -0.30000
H112        H  0.58048630  0.50562172  0.10814511     0.18500
C113        C  0.46982830  0.50811752  0.99532183    -0.29000
N114        N  0.49798650  0.49258659  0.97360365     0.15200
C115        C  0.52081878  0.47082979  0.99378058    -0.29000
C116        C  0.41715523  0.44572918  0.09387351    -0.29200
N117        N  0.42962802  0.41147370  0.10262950     0.15800
H118        H  0.38867630  0.45693538  0.09947660     0.18400
C119        C  0.46741583  0.40783079  0.09371010    -0.29300
H120        H  0.48529436  0.38401716  0.09916728     0.18400
H121        H  0.54452942  0.45381887  0.98302711     0.18400
H122        H  0.48374274  0.57766055  0.10909595     0.18500
H123        H  0.44673442  0.52548859  0.98611400     0.18400
C124        C  0.52136908  0.52009931  0.83997812     0.32300
C125        C  0.46090988  0.47176840  0.84005039     0.32300
C126        C  0.52709443  0.48209746  0.81838143    -0.03900
C127        C  0.50917003  0.50828079  0.87820950    -0.04700
C128        C  0.48357252  0.53416135  0.82375758    -0.04600
C129        C  0.49616741  0.45738480  0.81848919    -0.03900
C130        C  0.47787806  0.48355337  0.87780274    -0.04700
C131        C  0.45266000  0.50933743  0.82388710    -0.04600
C132        C  0.50755593  0.42410422  0.80043081    -0.30000
N133        N  0.54440593  0.42825214  0.78942910     0.16500
C134        C  0.55681011  0.46336457  0.80019640    -0.30000
H135        H  0.58561632  0.47386246  0.79632949     0.18500
C136        C  0.47128635  0.47460695  0.91317555    -0.29000
N137        N  0.49788841  0.49264881  0.93508419     0.15200
C138        C  0.52116413  0.51348618  0.91446266    -0.29000
C139        C  0.42226666  0.52559810  0.80671865    -0.29200
N140        N  0.43393621  0.55951711  0.79629021     0.15800
H141        H  0.39405155  0.51345649  0.80158414     0.18400
C142        C  0.47125558  0.56513137  0.80632975    -0.29300
H143        H  0.48823719  0.58952507  0.80080883     0.18400
H144        H  0.54460660  0.53106635  0.92505339     0.18400
H145        H  0.49093454  0.39843552  0.79678133     0.18500
H146        H  0.44900317  0.45634405  0.92242939     0.18400
C147        C  0.07199585  0.90839424  0.02522111     0.44700
N148        N  0.03194142  0.92235558  0.98370479     0.03600
C149        C  0.02915926  0.08303228  0.88749764    -0.04300
H150        H  0.01054378  0.10731994  0.02854168     0.09100
C151        C  0.88581658  0.03353191  0.01607361    -0.04600
Co152      Co  0.05501337  0.99178936  0.94800519     0.74200
N153        N  0.02307629  0.05840815  0.99215088    -0.23800
Co154      Co  0.98017216  0.05615008  0.95168271     0.74100
C155        C  0.89800805  0.06914768  0.03472223     0.44800
N156        N  0.91777233  0.94259255  0.98585688     0.03200
N157        N  0.93746607  0.05375535  0.99121155     0.03300
N158        N  0.07808721  0.04130142  0.88629483    -0.44600
H159        H  0.10970425  0.95988841  0.01603922     0.09100
N160        N  0.05170135  0.03399474  0.99083473     0.03600
N161        N  0.93742608  0.05190099  0.91114212     0.03400
C162        C  0.89997405  0.06250873  0.86652078     0.45000
N163        N  0.94620464  0.91796738  0.98455955    -0.23300
C164        C  0.08160512  0.94347031  0.87776788    -0.04200
N165        N  0.04011307  0.89651950  0.00682657    -0.44400
N166        N  0.93063456  0.07606776  0.88593032    -0.44600
C167        C  0.06919358  0.90836971  0.85842815     0.44700
N168        N  0.05165051  0.03336723  0.91066456     0.03600
N169        N  0.94546120  0.91583171  0.90434529    -0.23300
N170        N  0.05711669  0.95013576  0.98524312    -0.23800
N171        N  0.91659362  0.93988950  0.90575746     0.03200
H172        H  0.95542813  0.86376125  0.87204255     0.09100
H173        H  0.86291947  0.01057122  0.87546742     0.09200
N174        N  0.02290214  0.05753723  0.91206196    -0.23800
N175        N  0.91215054  0.02611453  0.98968930    -0.23400
N176        N  0.03126724  0.92148754  0.90373903     0.03600
C177        C  0.06394520  0.07120723  0.03817515     0.45000
C178        C  0.94120877  0.89478383  0.01160434    -0.04700
N179        N  0.91253909  0.02381225  0.90964829    -0.23400
H180        H  0.85987022  0.01751480  0.01982847     0.09200
N181        N  0.07703924  0.04087538  0.01772020    -0.44700
H182        H  0.95931030  0.87115528  0.01702000     0.09100
C183        C  0.90166943  0.89901357  0.86196205     0.44800
C184        C  0.08378528  0.94361118  0.01063756    -0.04200
Co185      Co  0.98875804  0.91866546  0.94402843     0.73800
N186        N  0.89306718  0.93761674  0.01262899    -0.44400
C187        C  0.06540387  0.07185352  0.87012206     0.45100
N188        N  0.03822184  0.89604052  0.87628399    -0.44400
Co189      Co  0.91396877  0.98306912  0.94769509     0.73900
C190        C  0.88756109  0.02824852  0.88230850    -0.04700
C191        C  0.02846459  0.08319585  0.02115598    -0.04200
N192        N  0.05632583  0.94945058  0.90529921    -0.23800
N193        N  0.92976769  0.08025960  0.01739584    -0.44500
H194        H  0.01216716  0.10803030  0.88450037     0.09100
C195        C  0.93853809  0.88897755  0.87754770    -0.04700
Cl196      Cl  0.98448770  0.98740629  0.94782690    -0.47700
C197        C  0.90624706  0.90825651  0.03019083     0.44900
H198        H  0.10659247  0.96055276  0.87308858     0.09100
N199        N  0.88939705  0.93047466  0.88122851    -0.44400
C200        C  0.79458257  0.76502194  0.76101891     0.19300
C201        C  0.78207247  0.77822612  0.79607751    -0.09800
C202        C  0.80257625  0.80660657  0.81622321    -0.10700
C203        C  0.83571729  0.82206020  0.80143926     0.20900
C204        C  0.84809777  0.80895961  0.76630197    -0.12700
C205        C  0.82759944  0.78058987  0.74616891    -0.11000
C206        C  0.85753816  0.85064287  0.82255086     0.01800
C207        C  0.87691983  0.87353297  0.84034274    -0.31000
C208        C  0.77337724  0.73586541  0.74016663     0.03200
C209        C  0.75497342  0.71225461  0.72229384    -0.32700
H210        H  0.75653559  0.76654231  0.80785627     0.14200
H211        H  0.79269366  0.81636720  0.84336033     0.14100
H212        H  0.87368021  0.82055124  0.75454435     0.13900
H213        H  0.83753896  0.77075323  0.71906482     0.13000
C214        C  0.66103219  0.62418927  0.76442460     0.19300
C215        C  0.62559737  0.61281766  0.74901031    -0.09800
C216        C  0.59893982  0.59380092  0.76957841    -0.10700
C217        C  0.60734008  0.58595934  0.80583476     0.20900
C218        C  0.64277233  0.59732647  0.82137950    -0.12700
C219        C  0.66951720  0.61644453  0.80074413    -0.11000
C220        C  0.57973611  0.56514603  0.82597714     0.01800
C221        C  0.55421277  0.54582426  0.83697047    -0.31000
C222        C  0.68808862  0.64424893  0.74293248     0.03200
C223        C  0.70873069  0.66197529  0.72379872    -0.32700
H224        H  0.61856380  0.61864976  0.72104932     0.14200
H225        H  0.57177090  0.58502909  0.75712007     0.14100
H226        H  0.64976901  0.59130002  0.84928703     0.13900
H227        H  0.69675705  0.62513722  0.81306798     0.13000
C228        C  0.17769619  0.78011975  0.11520366     0.19300
C229        C  0.19488573  0.79864015  0.08686224    -0.09800
C230        C  0.17433411  0.82582322  0.06912850    -0.10700
C231        C  0.13651503  0.83465441  0.07971781     0.20900
C232        C  0.11939048  0.81622901  0.10815773    -0.12700
C233        C  0.13993856  0.78905150  0.12588507    -0.11000
C234        C  0.11496869  0.86203125  0.06101662     0.01800
C235        C  0.09592469  0.88396488  0.04503745    -0.31000
C236        C  0.19885018  0.75209289  0.13334953     0.03200
C237        C  0.21716684  0.72915078  0.14874608    -0.32700
H238        H  0.22409644  0.79199727  0.07842886     0.14200
H239        H  0.18784005  0.83981542  0.04712477     0.14100
H240        H  0.09013713  0.82276693  0.11651385     0.13900
H241        H  0.12638528  0.77496244  0.14780418     0.13000
C242        C  0.31252965  0.63222857  0.10817319     0.19300
C243        C  0.35155889  0.63869357  0.11568472    -0.09800
C244        C  0.37901305  0.61234881  0.10311292    -0.10700
C245        C  0.36762989  0.57934794  0.08295086     0.20900
C246        C  0.32864662  0.57311366  0.07473029    -0.12700
C247        C  0.30108449  0.59956022  0.08735529    -0.11000
C248        C  0.39604296  0.55123523  0.07300207     0.01800
C249        C  0.42199773  0.52906647  0.06847195    -0.31000
C250        C  0.28447929  0.65777927  0.12455108     0.03200
C251        C  0.26333174  0.67873167  0.14229438    -0.32700
H252        H  0.36067449  0.66365844  0.13206621     0.14200
H253        H  0.40903771  0.61728975  0.10985215     0.14100
H254        H  0.31952868  0.54753093  0.05937071     0.13900
H255        H  0.27091952  0.59412843  0.08170149     0.13000
C256        C  0.65791440  0.74575677  0.63765848     0.19300
C257        C  0.67351966  0.76782121  0.61110379    -0.09800
C258        C  0.64928167  0.78787778  0.58891848    -0.10700
C259        C  0.60930041  0.78598735  0.59319212     0.20900
C260        C  0.59371141  0.76424579  0.62001196    -0.12700
C261        C  0.61795168  0.74418178  0.64219924    -0.11000
C262        C  0.58427319  0.80516546  0.56918976     0.01800
C263        C  0.56338830  0.81991163  0.54804304    -0.31000
C264        C  0.68290435  0.72441136  0.65984030     0.03200
C265        C  0.70435829  0.70660223  0.67800705    -0.32700
H266        H  0.70437480  0.76925526  0.60734858     0.14200
H267        H  0.66166961  0.80449820  0.56820473     0.14100
H268        H  0.56283761  0.76248324  0.62349033     0.13900
H269        H  0.60555673  0.72722778  0.66263334     0.13000
C270        C  0.30984856  0.75396301  0.24743198     0.19300
C271        C  0.34143827  0.77689865  0.24085861    -0.09800
C272        C  0.36401593  0.79160914  0.27022061    -0.10700
C273        C  0.35505051  0.78339861  0.30619219     0.20900
C274        C  0.32343323  0.76050775  0.31273321    -0.12700
C275        C  0.30088378  0.74581376  0.28340638    -0.11000
C276        C  0.37870881  0.79775174  0.33632222     0.01800
C277        C  0.39908364  0.80887431  0.36151145    -0.31000
C278        C  0.28676215  0.73827957  0.21745047     0.03200
C279        C  0.26635579  0.72337511  0.19398343    -0.32700
H280        H  0.34866360  0.78325805  0.21312639     0.14200
H281        H  0.38851271  0.80918121  0.26488587     0.14100
H282        H  0.31635557  0.75388490  0.34042781     0.13900
H283        H  0.27657048  0.72799669  0.28874568     0.13000
C284        C  0.83598756  0.11612286  0.79244543     0.19300
C285        C  0.79779225  0.10446030  0.78684323    -0.09800
C286        C  0.77493529  0.12087698  0.76076290    -0.10700
C287        C  0.79017989  0.14900894  0.74014690     0.20900
C288        C  0.82830379  0.16080793  0.74588910    -0.12700
C289        C  0.85116187  0.14439279  0.77196783    -0.11000
C290        C  0.76668177  0.16609101  0.71341553     0.01800
C291        C  0.74720112  0.18146924  0.69156708    -0.31000
C292        C  0.85966469  0.09864397  0.81878523     0.03200
C293        C  0.87875947  0.08288372  0.84062125    -0.32700
H294        H  0.78575965  0.08262106  0.80252105     0.14200
H295        H  0.74545151  0.11162575  0.75664811     0.14100
H296        H  0.84033998  0.18263070  0.73019526     0.13900
H297        H  0.88064570  0.15362864  0.77606409     0.13000
C298        C  0.60988704  0.34350655  0.74460651     0.19300
C299        C  0.60004343  0.30658463  0.75156692    -0.09800
C300        C  0.62278085  0.27656540  0.73768094    -0.10700
C301        C  0.65545172  0.28338402  0.71681902     0.20900
C302        C  0.66529777  0.32030673  0.70983317    -0.12700
C303        C  0.64256452  0.35032506  0.72372383    -0.11000
C304        C  0.67847850  0.25260757  0.70180854     0.01800
C305        C  0.69841217  0.22833266  0.68718166    -0.31000
C306        C  0.58670993  0.37431655  0.75935514     0.03200
C307        C  0.56718165  0.39954629  0.77278085    -0.32700
H308        H  0.57485175  0.30103373  0.76772563     0.14200
H309        H  0.61485654  0.24811177  0.74311046     0.14100
H310        H  0.69044621  0.32584667  0.69359275     0.13900
H311        H  0.65045283  0.37877392  0.71822284     0.13000
C312        C  0.79402188  0.83169884  0.16117510     0.19300
C313        C  0.78406764  0.86550185  0.14623997    -0.09800
C314        C  0.80824823  0.88100294  0.12066743    -0.10700
C315        C  0.84254667  0.86280087  0.10986735     0.20900
C316        C  0.85277118  0.82928157  0.12519521    -0.12700
C317        C  0.82859213  0.81378066  0.15077199    -0.11000
C318        C  0.86663493  0.87805329  0.08242322     0.01800
C319        C  0.88559007  0.89125219  0.05882270    -0.31000
C320        C  0.76824115  0.81469350  0.18612367     0.03200
C321        C  0.74673381  0.79909219  0.20611086    -0.32700
H322        H  0.75741469  0.87960645  0.15400205     0.14200
H323        H  0.79999786  0.90691877  0.10901455     0.14100
H324        H  0.87918491  0.81492209  0.11707118     0.13900
H325        H  0.83659900  0.78761455  0.16206795     0.13000
C326        C  0.60514924  0.63723067  0.15339212     0.19300
C327        C  0.64502186  0.63552054  0.14797289    -0.09800
C328        C  0.66835017  0.66588570  0.16022684    -0.10700
C329        C  0.65190677  0.69816320  0.17787365     0.20900
C330        C  0.61204650  0.69986952  0.18326587    -0.12700
C331        C  0.58872612  0.66951244  0.17102567    -0.11000
C332        C  0.67603790  0.72863834  0.19222167     0.01800
C333        C  0.69639867  0.75258033  0.20712149    -0.31000
C334        C  0.58112397  0.60592345  0.14089095     0.03200
C335        C  0.56105851  0.57977382  0.13014070    -0.32700
H336        H  0.65806510  0.61068476  0.13444546     0.14200
H337        H  0.69917510  0.66407265  0.15624242     0.14100
H338        H  0.59905436  0.72450954  0.19720776     0.13900
H339        H  0.55796321  0.67114305  0.17544435     0.13000
C340        C  0.65096714  0.83546607  0.30335545     0.19300
C341        C  0.65649535  0.82642497  0.33972998    -0.09800
C342        C  0.62934224  0.83724165  0.36662415    -0.10700
C343        C  0.59645240  0.85716869  0.35732746     0.20900
C344        C  0.59142033  0.86717905  0.32117037    -0.12700
C345        C  0.61861561  0.85632995  0.29422286    -0.11000
C346        C  0.56664376  0.86465038  0.38420576     0.01800
C347        C  0.54089910  0.86794521  0.40630165    -0.31000
C348        C  0.67680625  0.82042534  0.27521173     0.03200
C349        C  0.69764504  0.80362394  0.25331224    -0.32700
H350        H  0.68121857  0.81004221  0.34707197     0.14200
H351        H  0.63343289  0.82912584  0.39440710     0.14100
H352        H  0.56597657  0.88238259  0.31360535     0.13900
H353        H  0.61385828  0.86323637  0.26614919     0.13000
C354        C  0.83340979  0.57981950  0.56623530     0.19300
C355        C  0.82573765  0.61806300  0.56313464    -0.09800
C356        C  0.80705495  0.63919880  0.59165143    -0.10700
C357        C  0.79580490  0.62225390  0.62347382     0.20900
C358        C  0.80403204  0.58416828  0.62678668    -0.12700
C359        C  0.82271440  0.56304895  0.59828916    -0.11000
C360        C  0.77452327  0.64351714  0.65195267     0.01800
C361        C  0.75552423  0.66174922  0.67456888    -0.31000
C362        C  0.84918625  0.55704257  0.53552654     0.03200
C363        C  0.85791593  0.53655446  0.50902879    -0.32700
H364        H  0.83343084  0.63132816  0.53837388     0.14200
H365        H  0.80075451  0.66855807  0.58860105     0.14100
H366        H  0.79538640  0.57062875  0.65109761     0.13900
H367        H  0.82805289  0.53343992  0.60091442     0.13000
C368        C  0.79788828  0.33327367  0.55878197     0.19300
C369        C  0.77390881  0.34102804  0.58913416    -0.09800
C370        C  0.76365529  0.31234137  0.61136002    -0.10700
C371        C  0.77732924  0.27574049  0.60338183     0.20900
C372        C  0.80186610  0.26805273  0.57341209    -0.12700
C373        C  0.81216332  0.29681200  0.55114819    -0.11000
C374        C  0.76394720  0.24604977  0.62478319     0.01800
C375        C  0.74818362  0.22396019  0.64327275    -0.31000
C376        C  0.80694388  0.36260175  0.53509722     0.03200
C377        C  0.81349994  0.38784359  0.51573461    -0.32700
H378        H  0.76269616  0.36909746  0.59528866     0.14200
H379        H  0.74448302  0.31853446  0.63435391     0.14100
H380        H  0.81242545  0.23980831  0.56689318     0.13900
H381        H  0.83072463  0.29052765  0.52773662     0.13000
C382        C  0.79699680  0.64354325  0.33355964     0.19300
C383        C  0.78524091  0.63628598  0.29704089    -0.09800
C384        C  0.77371185  0.66585091  0.27642112    -0.10700
C385        C  0.77395977  0.70281215  0.29219747     0.20900
C386        C  0.78596597  0.71015477  0.32865292    -0.12700
C387        C  0.79752533  0.68054460  0.34930348    -0.11000
C388        C  0.75980699  0.73262600  0.27138674     0.01800
C389        C  0.74458873  0.75503274  0.25285581    -0.31000
C390        C  0.80794343  0.61294276  0.35494660     0.03200
C391        C  0.81691701  0.58721913  0.37284661    -0.32700
H392        H  0.78464998  0.60777875  0.28464161     0.14200
H393        H  0.76414382  0.65985831  0.24834763     0.14100
H394        H  0.78593808  0.73861012  0.34119596     0.13900
H395        H  0.80650219  0.68642666  0.37756053     0.13000
C396        C  0.13529697  0.14380642  0.81910502     0.19300
C397        C  0.17529823  0.14142379  0.82303147    -0.09800
C398        C  0.19925213  0.16682600  0.80653060    -0.10700
C399        C  0.18330918  0.19475418  0.78606416     0.20900
C400        C  0.14330801  0.19718897  0.78217136    -0.12700
C401        C  0.11934757  0.17178358  0.79867574    -0.11000
C402        C  0.20796460  0.22075287  0.76892784     0.01800
C403        C  0.22843996  0.24241194  0.75416143    -0.31000
C404        C  0.11066760  0.11774560  0.83625386     0.03200
C405        C  0.09007738  0.09632496  0.85119818    -0.32700
H406        H  0.18793926  0.11996255  0.83882556     0.14200
H407        H  0.23013841  0.16468578  0.80970374     0.14100
H408        H  0.13067847  0.21867467  0.76639036     0.13900
H409        H  0.08846159  0.17394401  0.79552068     0.13000
C410        C  0.32406760  0.33742152  0.79877131     0.19300
C411        C  0.36360930  0.33020938  0.79665391    -0.09800
C412        C  0.38987440  0.35752262  0.81004485    -0.10700
C413        C  0.37673332  0.39218024  0.82559571     0.20900
C414        C  0.33716663  0.39899571  0.82878187    -0.12700
C415        C  0.31085365  0.37162639  0.81538094    -0.11000
C416        C  0.40401184  0.42155433  0.83519060     0.01800
C417        C  0.42875104  0.44512470  0.83937015    -0.31000
C418        C  0.29748319  0.31135972  0.78061635     0.03200
C419        C  0.27648924  0.29104762  0.76185809    -0.32700
H420        H  0.37414237  0.30401749  0.78354204     0.14200
H421        H  0.42041738  0.35210329  0.80718263     0.14100
H422        H  0.32671810  0.42581753  0.84050185     0.13900
H423        H  0.28033555  0.37761204  0.81683346     0.13000
C424        C  0.79263211  0.20540706  0.13281836     0.19300
C425        C  0.83285658  0.20704694  0.13121590    -0.09800
C426        C  0.85349412  0.17823080  0.11209354    -0.10700
C427        C  0.83405806  0.14754293  0.09447187     0.20900
C428        C  0.79381951  0.14594492  0.09597894    -0.12700
C429        C  0.77317302  0.17477278  0.11511098    -0.11000
C430        C  0.85542410  0.11814645  0.07438431     0.01800
C431        C  0.87420345  0.09476122  0.05684365    -0.31000
C432        C  0.77143072  0.23466756  0.15327123     0.03200
C433        C  0.75345520  0.25834331  0.17131593    -0.37500
H434        H  0.84825475  0.23051395  0.14483922     0.14200
H435        H  0.88457863  0.17988033  0.11104299     0.14100
H436        H  0.77843329  0.12245545  0.08238190     0.13900
H437        H  0.74209272  0.17311821  0.11620026     0.13000
C438        C  0.65965875  0.34950065  0.13340580     0.19300
C439        C  0.65022176  0.33928891  0.09664102    -0.09800
C440        C  0.62342278  0.36045946  0.07806608    -0.10700
C441        C  0.60597894  0.39197362  0.09617357     0.20900
C442        C  0.61566578  0.40226015  0.13281419    -0.12700
C443        C  0.64235894  0.38114231  0.15133796    -0.11000
C444        C  0.57692047  0.41315508  0.07829757     0.01800
C445        C  0.55073675  0.43257881  0.06888822    -0.31000
C446        C  0.68615648  0.32713757  0.15322373     0.03200
C447        C  0.70712747  0.30855174  0.17124226    -0.32700
H448        H  0.66326128  0.31479260  0.08248783     0.14200
H449        H  0.61602653  0.35204504  0.04983438     0.14100
H450        H  0.60221857  0.42641347  0.14721744     0.13900
H451        H  0.64922267  0.38927756  0.17976036     0.13000
C452        C  0.83630302  0.39498979  0.32267163     0.19300
C453        C  0.81508417  0.41247499  0.29594717    -0.09800
C454        C  0.79634703  0.39084444  0.26772605    -0.10700
C455        C  0.79862052  0.35151864  0.26599699     0.20900
C456        C  0.82054067  0.33405484  0.29222931    -0.12700
C457        C  0.83927008  0.35569088  0.32047413    -0.11000
C458        C  0.77666929  0.32907896  0.23879031     0.01800
C459        C  0.75671359  0.30983017  0.21773200    -0.31000
C460        C  0.85201921  0.41722147  0.35388912     0.03200
C461        C  0.86036359  0.43693595  0.38110302    -0.32700
H462        H  0.81219501  0.44278934  0.29747896     0.14200
H463        H  0.77935571  0.40474214  0.24779679     0.14100
H464        H  0.82239204  0.30368573  0.29137116     0.13900
H465        H  0.85521330  0.34174835  0.34109459     0.13000
C466        C  0.59857214  0.11314248  0.54302628     0.19300
C467        C  0.63659596  0.11981417  0.53265161    -0.09800
C468        C  0.66355889  0.13314475  0.55896264    -0.10700
C469        C  0.65263167  0.13986810  0.59576645     0.20900
C470        C  0.61488372  0.13215501  0.60631420    -0.12700
C471        C  0.58792258  0.11881826  0.58000506    -0.11000
C472        C  0.67909608  0.15774733  0.62193364     0.01800
C473        C  0.70008294  0.17597573  0.64270776    -0.31000
C474        C  0.56974337  0.10395064  0.51545467     0.03200
C475        C  0.54446317  0.10008452  0.49282487    -0.32700
H476        H  0.64506978  0.11586940  0.50410473     0.14200
H477        H  0.69256502  0.13932078  0.55042975     0.14100
H478        H  0.60600336  0.13755798  0.63462116     0.13900
H479        H  0.55851389  0.11409822  0.58829166     0.13000
C480        C  0.36484471  0.19517178  0.59293909     0.19300
C481        C  0.37962024  0.19357700  0.62853590    -0.09800
C482        C  0.35738311  0.20595494  0.65887479    -0.10700
C483        C  0.32027843  0.21989123  0.65368511     0.20900
C484        C  0.30552672  0.22151879  0.61807553    -0.12700
C485        C  0.32775824  0.20914216  0.58774726    -0.11000
C486        C  0.29767051  0.23370471  0.68465662     0.01800
C487        C  0.27785574  0.24770858  0.70897227    -0.31000
C488        C  0.38758283  0.18194924  0.56186673     0.03200
C489        C  0.40707979  0.16973313  0.53656279    -0.32700
H490        H  0.40827258  0.18277697  0.63281136     0.14200
H491        H  0.36912805  0.20479880  0.68627873     0.14100
H492        H  0.27694216  0.23247969  0.61378144     0.13900
H493        H  0.31606922  0.21045515  0.56033143     0.13000
C494        C  0.66029504  0.22843990  0.26193370     0.19300
C495        C  0.62032153  0.22887076  0.25698779    -0.09800
C496        C  0.59634300  0.21017465  0.28048642    -0.10700
C497        C  0.61217080  0.19091518  0.30908460     0.20900
C498        C  0.65217331  0.19036048  0.31395434    -0.12700
C499        C  0.67616010  0.20906381  0.29044452    -0.11000
C500        C  0.58734946  0.17211799  0.33359087     0.01800
C501        C  0.56652917  0.15678922  0.35436936    -0.31000
C502        C  0.68492737  0.24816269  0.23802190     0.03200
C503        C  0.70555406  0.26496846  0.21821348    -0.32700
H504        H  0.60770010  0.24376334  0.23507682     0.14200
H505        H  0.56548283  0.21085273  0.27644474     0.14100
H506        H  0.66478274  0.17561117  0.33597225     0.13900
H507        H  0.70702040  0.20854051  0.29457571     0.13000
C508        C  0.13053574  0.84498797  0.78083482     0.19300
C509        C  0.13644694  0.85805954  0.74595665    -0.09800
C510        C  0.15769254  0.83661867  0.71948577    -0.10700
C511        C  0.17322376  0.80190665  0.72764116     0.20900
C512        C  0.16729163  0.78879097  0.76251485    -0.12700
C513        C  0.14603244  0.81024258  0.78899972    -0.11000
C514        C  0.19534823  0.77995882  0.70032150     0.01800
C515        C  0.21410836  0.76176520  0.67751451    -0.31000
C516        C  0.10872484  0.86724887  0.80817540     0.03200
C517        C  0.09058604  0.88598754  0.83102581    -0.32700
H518        H  0.12467818  0.88484154  0.73923647     0.14200
H519        H  0.16205194  0.84713374  0.69268996     0.14100
H520        H  0.17913492  0.76203659  0.76924313     0.13900
H521        H  0.14172765  0.79976791  0.81582696     0.13000
C522        C  0.36488050  0.62883246  0.74202094     0.19300
C523        C  0.34309840  0.65654960  0.76162862    -0.09800
C524        C  0.31753110  0.67901545  0.74312248    -0.10700
C525        C  0.31350891  0.67392336  0.70486539     0.20900
C526        C  0.33546450  0.64636858  0.68523208    -0.12700
C527        C  0.36102996  0.62390335  0.70373771    -0.11000
C528        C  0.28671957  0.69671663  0.68582955     0.01800
C529        C  0.26431507  0.71580182  0.66986602    -0.31000
C530        C  0.39048486  0.60496980  0.76121445     0.03200
C531        C  0.41103138  0.58429598  0.77738737    -0.32700
H532        H  0.34570613  0.66063748  0.79121716     0.14200
H533        H  0.30076967  0.70020699  0.75865497     0.14100
H534        H  0.33267716  0.64212580  0.65567006     0.13900
H535        H  0.37761008  0.60255472  0.68822452     0.13000
C536        C  0.36179033  0.84403822  0.54968773     0.19300
C537        C  0.37181857  0.83181463  0.58412048    -0.09800
C538        C  0.34478565  0.81317866  0.60475226    -0.10700
C539        C  0.30745930  0.80646751  0.59114405     0.20900
C540        C  0.29712755  0.81951215  0.55712410    -0.12700
C541        C  0.32418124  0.83816252  0.53647356    -0.11000
C542        C  0.28065565  0.78452780  0.61120813     0.01800
C543        C  0.25999412  0.76469535  0.62830769    -0.31000
C544        C  0.39092383  0.85936159  0.52665946     0.03200
C545        C  0.41653299  0.86759191  0.50625812    -0.32700
H546        H  0.40082729  0.83578881  0.59458064     0.14200
H547        H  0.35328393  0.80319331  0.63092725     0.14100
H548        H  0.26846616  0.81447395  0.54615925     0.13900
H549        H  0.31606231  0.84709750  0.50978157     0.13000
C550        C  0.17387851  0.37730639  0.60832777     0.19300
C551        C  0.18677767  0.39552203  0.64135585    -0.09800
C552        C  0.19835198  0.37445637  0.67032110    -0.10700
C553        C  0.19692878  0.33513234  0.66633934     0.20900
C554        C  0.18326414  0.31697157  0.63358910    -0.12700
C555        C  0.17171366  0.33801591  0.60464704    -0.11000
C556        C  0.21251514  0.31324109  0.69438054     0.01800
C557        C  0.22888434  0.29355357  0.71490170    -0.31000
C558        C  0.16392078  0.39881493  0.57786745     0.03200
C559        C  0.15574657  0.41662933  0.55214351    -0.32700
H560        H  0.18856134  0.42590461  0.64444700     0.14200
H561        H  0.20921097  0.38874597  0.69541319     0.14100
H562        H  0.18240820  0.28656024  0.63012684     0.13900
H563        H  0.16180018  0.32366949  0.57921482     0.13000
C564        C  0.16246663  0.59385219  0.29561721     0.19300
C565        C  0.14631074  0.62931138  0.29166680    -0.09800
C566        C  0.15774696  0.65035652  0.26268197    -0.10700
C567        C  0.18527928  0.63595232  0.23752511     0.20900
C568        C  0.20089605  0.60019808  0.24110011    -0.12700
C569        C  0.18946990  0.57916634  0.27006648    -0.11000
C570        C  0.19993253  0.65898337  0.20998402     0.01800
C571        C  0.21593503  0.67877891  0.18935470    -0.31000
C572        C  0.15253323  0.57311578  0.32659199     0.03200
C573        C  0.14538952  0.55552933  0.35271386    -0.32700
H574        H  0.12549118  0.64095259  0.31134539     0.14200
H575        H  0.14580481  0.67813456  0.26037073     0.14100
H576        H  0.22250742  0.58897072  0.22201296     0.13900
H577        H  0.20221214  0.55181676  0.27294876     0.13000
C578        C  0.12899474  0.60970004  0.54305301     0.19300
C579        C  0.14378482  0.64121647  0.52690845    -0.09800
C580        C  0.16360188  0.66926073  0.54829432    -0.10700
C581        C  0.16892840  0.66605255  0.58605264     0.20900
C582        C  0.15331987  0.63500221  0.60234883    -0.12700
C583        C  0.13351944  0.60695985  0.58097025    -0.11000
C584        C  0.19189807  0.69346403  0.60772832     0.01800
C585        C  0.21215662  0.71497423  0.62640898    -0.31000
C586        C  0.11257042  0.57870183  0.52028739     0.03200
C587        C  0.10377874  0.55125209  0.50053480    -0.32700
H588        H  0.14090503  0.64361926  0.49761399     0.14200
H589        H  0.17553327  0.69298221  0.53522285     0.14100
H590        H  0.15723832  0.63201068  0.63144862     0.13900
H591        H  0.12264829  0.58266111  0.59384582     0.13000
C592        C  0.16911779  0.17045830  0.17421890     0.19300
C593        C  0.16989289  0.18074292  0.13784449    -0.09800
C594        C  0.14824767  0.16062643  0.11058035    -0.10700
C595        C  0.12559040  0.12999898  0.11939182     0.20900
C596        C  0.12461934  0.11984267  0.15581511    -0.12700
C597        C  0.14627880  0.13997320  0.18309705    -0.11000
C598        C  0.10364644  0.10895146  0.09105428     0.01800
C599        C  0.08553715  0.09155731  0.06706590    -0.31000
C600        C  0.19203140  0.19095951  0.20217262     0.03200
C601        C  0.21180165  0.20855287  0.22476511    -0.32700
H602        H  0.18736416  0.20422127  0.13052050     0.14200
H603        H  0.14930555  0.16886989  0.08260761     0.14100
H604        H  0.10724838  0.09628338  0.16310025     0.13900
H605        H  0.14533819  0.13166751  0.21105193     0.13000
C606        C  0.36203780  0.34039841  0.15618192     0.19300
C607        C  0.33102039  0.32226799  0.13777836    -0.09800
C608        C  0.30570913  0.29999982  0.15672868    -0.10700
C609        C  0.31116833  0.29568969  0.19426231     0.20900
C610        C  0.34228196  0.31367760  0.21264564    -0.12700
C611        C  0.36759939  0.33595276  0.19369172    -0.11000
C612        C  0.28480201  0.27303146  0.21389211     0.01800
C613        C  0.26283050  0.25408562  0.23045832    -0.31000
C614        C  0.38740456  0.36434482  0.13684195     0.03200
C615        C  0.40750012  0.38554404  0.12085017    -0.32700
H616        H  0.32625868  0.32553871  0.10884074     0.14200
H617        H  0.28180033  0.28628922  0.14215664     0.14100
H618        H  0.34686767  0.31062007  0.24164848     0.13900
H619        H  0.39134198  0.34988570  0.20832679     0.13000
C620        C  0.30843251  0.16561466  0.31025426     0.19300
C621        C  0.34526918  0.15843560  0.29585793    -0.09800
C622        C  0.37287503  0.14023217  0.31625738    -0.10700
C623        C  0.36391724  0.12894585  0.35124755     0.20900
C624        C  0.32688065  0.13556022  0.36544368    -0.12700
C625        C  0.29923480  0.15378268  0.34501488    -0.11000
C626        C  0.39360560  0.11351622  0.37359161     0.01800
C627        C  0.41972883  0.10488403  0.39326799    -0.31000
C628        C  0.28093645  0.18661346  0.29000588     0.03200
C629        C  0.25974742  0.20575430  0.27268002    -0.32700
H630        H  0.35289802  0.16756906  0.26914450     0.14200
H631        H  0.40146471  0.13571334  0.30508069     0.14100
H632        H  0.31964249  0.12738600  0.39260866     0.13900
H633        H  0.27097981  0.15928387  0.35661053     0.13000
C634        C  0.13388987  0.36072846  0.36278866     0.19300
C635        C  0.14717122  0.32790290  0.37768801    -0.09800
C636        C  0.16635972  0.30020410  0.35544729    -0.10700
C637        C  0.17253080  0.30512281  0.31811991     0.20900
C638        C  0.15885415  0.33774096  0.30317064    -0.12700
C639        C  0.13968717  0.36540690  0.32538454    -0.11000
C640        C  0.19392879  0.27751651  0.29537496     0.01800
C641        C  0.21270341  0.25572393  0.27570080    -0.31000
C642        C  0.11708573  0.39080895  0.38626393     0.03200
C643        C  0.10733989  0.41772618  0.40616960    -0.32700
H644        H  0.14333095  0.32403971  0.40662156     0.14200
H645        H  0.17688534  0.27525775  0.36747629     0.14100
H646        H  0.16353017  0.34206407  0.27444462     0.13900
H647        H  0.13002782  0.39076734  0.31353434     0.13000
loop_ 
_geom_bond_atom_site_label_1 
_geom_bond_atom_site_label_2 
_geom_bond_distance 
_geom_bond_site_symmetry_2 
_ccdc_geom_bond_type 
C1          C601   1.476       .  S
C1          C613   1.474       .  S
C1          C629   1.476       .  S
C1          C641   1.476       .  S
C2          C643   1.477       .  S
C2            C4   1.530       .  S
C2            C6   1.530       .  S
C2            C5   1.540       .  S
C3          C587   1.480       .  S
C3            C7   1.532       .  S
C3            C9   1.531       .  S
C3            C8   1.541       .  S
C4           C12   1.375       .  A
C4            C7   1.395       .  A
C5           C16   1.379       .  A
C5            C8   1.401       .  A
C6           C20   1.376       .  A
C6            C9   1.393       .  A
C7           C10   1.377       .  A
C8           C14   1.378       .  A
C9           C17   1.376       .  A
C10          N11   1.355       .  A
C10          H23   1.083       .  S
N11          C12   1.354       .  A
N11         C573   1.400       .  S
C12          H13   1.082       .  S
C14          N15   1.363       .  A
C14          H24   1.082       .  S
N15          C16   1.362       .  A
N15          N64   1.415   1_455  S
C16          H22   1.082       .  S
C17          N18   1.355       .  A
C17          H19   1.082       .  S
N18          C20   1.355       .  A
N18         C559   1.400       .  S
C20          H21   1.082       .  S
C25         C515   1.474       .  S
C25         C529   1.473       .  S
C25         C543   1.477       .  S
C25         C585   1.478       .  S
C26         C627   1.475       .  S
C26          C28   1.532       .  S
C26          C30   1.538       .  S
C26          C29   1.542       .  S
C27         C475   1.469       .  S
C27          C31   1.528       .  S
C27          C33   1.530       .  S
C27          C32   1.530       .  S
C28          C36   1.377       .  A
C28          C31   1.393       .  A
C29          C40   1.382       .  A
C29          C32   1.399       .  A
C30          C44   1.380       .  A
C30          C33   1.394       .  A
C31          C34   1.374       .  A
C32          C38   1.372       .  A
C33          C41   1.376       .  A
C34          N35   1.354       .  A
C34          H47   1.083       .  S
N35          C36   1.356       .  A
N35         C489   1.399       .  S
C36          H37   1.082       .  S
C38          N39   1.355       .  A
C38          H48   1.082       .  S
N39          C40   1.360       .  A
N39          N89   1.404   1_545  S
C40          H46   1.082       .  S
C41          N42   1.356       .  A
C41          H43   1.083       .  S
N42          C44   1.358       .  A
N42         C501   1.404       .  S
C44          H45   1.082       .  S
C49         C433   1.470       .  S
C49         C447   1.472       .  S
C49         C459   1.473       .  S
C49         C503   1.470       .  S
C50         C403   1.465       .  S
C50         C419   1.464       .  S
C50         C487   1.464       .  S
C50         C557   1.463       .  S
C51         C363   1.475       .  S
C51          C53   1.527       .  S
C51          C55   1.533       .  S
C51          C54   1.537       .  S
C52         C461   1.476       .  S
C52          C56   1.531       .  S
C52          C58   1.535       .  S
C52          C57   1.541       .  S
C53          C61   1.375       .  A
C53          C56   1.390       .  A
C54          C65   1.377       .  A
C54          C57   1.398       .  A
C55          C69   1.378       .  A
C55          C58   1.403       .  A
C56          C59   1.377       .  A
C57          C63   1.380       .  A
C58          C66   1.381       .  A
C59          N60   1.356       .  A
C59          H72   1.083       .  S
N60          C61   1.355       .  A
N60         C391   1.400       .  S
C61          H62   1.082       .  S
C63          N64   1.363       .  A
C63          H73   1.082       .  S
N64          C65   1.362       .  A
C65          H71   1.081       .  S
C66          N67   1.353       .  A
C66          H68   1.082       .  S
N67          C69   1.352       .  A
N67         C377   1.401       .  S
C69          H70   1.083       .  S
C74         C321   1.470       .  S
C74         C333   1.468       .  S
C74         C349   1.468       .  S
C74         C389   1.464       .  S
C75         C291   1.466       .  S
C75         C305   1.464       .  S
C75         C375   1.465       .  S
C75         C473   1.467       .  S
C76         C545   1.477       .  S
C76          C78   1.536       .  S
C76          C80   1.536       .  S
C76          C79   1.543       .  S
C77         C347   1.471       .  S
C77          C81   1.529       .  S
C77          C83   1.527       .  S
C77          C82   1.528       .  S
C78          C86   1.379       .  A
C78          C81   1.400       .  A
C79          C90   1.383       .  A
C79          C82   1.398       .  A
C80          C94   1.379       .  A
C80          C83   1.392       .  A
C81          C84   1.376       .  A
C82          C88   1.371       .  A
C83          C91   1.375       .  A
C84          N85   1.352       .  A
C84          H97   1.083       .  S
N85          C86   1.354       .  A
N85         C277   1.400       .  S
C86          H87   1.082       .  S
C88          N89   1.353       .  A
C88          H98   1.082       .  S
N89          C90   1.361       .  A
C90          H96   1.082       .  S
C91          N92   1.355       .  A
C91          H93   1.083       .  S
N92          C94   1.357       .  A
N92         C263   1.402       .  S
C94          H95   1.082       .  S
C99         C237   1.465       .  S
C99         C251   1.464       .  S
C99         C279   1.464       .  S
C99         C571   1.464       .  S
C100        C209   1.472       .  S
C100        C223   1.475       .  S
C100        C265   1.468       .  S
C100        C361   1.475       .  S
C101        C445   1.472       .  S
C101        C103   1.535       .  S
C101        C105   1.538       .  S
C101        C104   1.544       .  S
C102        C249   1.466       .  S
C102        C106   1.532       .  S
C102        C108   1.529       .  S
C102        C107   1.530       .  S
C103        C111   1.379       .  A
C103        C106   1.396       .  A
C104        C115   1.385   1_554  A
C104        C107   1.397       .  A
C105        C119   1.382       .  A
C105        C108   1.391       .  A
C106        C109   1.379       .  A
C107        C113   1.373   1_554  A
C108        C116   1.377       .  A
C109        N110   1.355       .  A
C109        H122   1.083       .  S
N110        C111   1.355       .  A
N110        C335   1.403       .  S
C111        H112   1.082       .  S
C113        N114   1.355       .  A
C113        H123   1.082       .  S
N114        C115   1.362       .  A
N114        N137   1.406       .  S
C115        H121   1.082       .  S
C116        N117   1.356       .  A
C116        H118   1.083       .  S
N117        C119   1.359       .  A
N117        C615   1.407       .  S
C119        H120   1.083       .  S
C124        C221   1.474       .  S
C124        C126   1.532       .  S
C124        C128   1.539       .  S
C124        C127   1.547       .  S
C125        C417   1.466       .  S
C125        C129   1.528       .  S
C125        C131   1.529       .  S
C125        C130   1.529       .  S
C126        C134   1.377       .  A
C126        C129   1.390       .  A
C127        C138   1.387       .  A
C127        C130   1.400       .  A
C128        C142   1.381       .  A
C128        C131   1.393       .  A
C129        C132   1.375       .  A
C130        C136   1.372       .  A
C131        C139   1.377       .  A
C132        N133   1.355       .  A
C132        H145   1.083       .  S
N133        C134   1.356       .  A
N133        C307   1.400       .  S
C134        H135   1.082       .  S
C136        N137   1.354       .  A
C136        H146   1.082       .  S
N137        C138   1.362       .  A
C138        H144   1.082       .  S
C139        N140   1.356       .  A
C139        H141   1.083       .  S
N140        C142   1.359       .  A
N140        C531   1.406       .  S
C142        H143   1.082       .  S
C147        N165   1.347       .  A
C147        C184   1.458       .  S
C147        C235   1.436       .  S
N148        N165   1.324   1_556  A
N148        N170   1.320       .  A
N148       Co185   2.082   1_455  S
C149        N174   1.340       .  A
C149        H194   1.082       .  S
C149        C187   1.456       .  S
H150        C191   1.082       .  S
C151        N175   1.343   1_554  A
C151        H180   1.082       .  S
C151        C155   1.460       .  S
Co152       N170   2.085       .  S
Co152       N160   2.096   1_565  S
Co152       N192   2.093       .  S
Co152       N168   2.088   1_565  S
Co152      Cl196   2.457   1_455  S
N153        C191   1.343   1_556  A
N153        N160   1.322       .  A
N153       Co154   2.095   1_455  S
Co154       N157   2.079       .  S
Co154       N174   2.079   1_655  S
Co154       N161   2.093       .  S
Co154      Cl196   2.451   1_545  S
C155        N193   1.347       .  A
C155        C431   1.439       .  S
N156        N163   1.322       .  A
N156        N186   1.324   1_556  A
N156       Co189   2.080       .  S
N157        N175   1.320       .  A
N157        N193   1.324   1_556  A
N158        C187   1.350       .  A
N158        N168   1.325       .  A
H159        C184   1.082       .  S
N160        N181   1.327   1_556  A
N161        N179   1.322       .  A
N161        N166   1.326       .  A
C162        N166   1.349       .  A
C162        C190   1.454       .  S
C162        C293   1.436       .  S
N163        C178   1.344   1_556  A
N163       Co185   2.097       .  S
C164        N192   1.343       .  A
C164        H198   1.082       .  S
C164        C167   1.458       .  S
C167        N188   1.350       .  A
C167        C517   1.443       .  S
N168        N174   1.319       .  A
N169        C195   1.341       .  A
N169        N171   1.320       .  A
N169       Co185   2.084       .  S
N170        C184   1.342   1_556  A
N171        N199   1.327       .  A
N171       Co189   2.096       .  S
H172        C195   1.082       .  S
H173        C190   1.082       .  S
N175       Co189   2.093   1_545  S
N176        N188   1.327       .  A
N176        N192   1.322       .  A
N176       Co185   2.095   1_455  S
C177        N181   1.350       .  A
C177        C191   1.458       .  S
C177        C599   1.446       .  S
C178        H182   1.081       .  S
C178        C197   1.459       .  S
N179        C190   1.340       .  A
N179       Co189   2.081   1_545  S
C183        N199   1.351       .  A
C183        C195   1.457       .  S
C183        C207   1.444       .  S
Co185      Cl196   2.451       .  S
N186        C197   1.346       .  A
C187        C405   1.436       .  S
Co189      Cl196   2.457       .  S
C197        C319   1.439       .  S
C200        C201   1.402       .  A
C200        C205   1.402       .  A
C200        C208   1.445       .  S
C201        C202   1.402       .  A
C201        H210   1.084       .  S
C202        C203   1.403       .  A
C202        H211   1.083       .  S
C203        C204   1.403       .  A
C203        C206   1.447       .  S
C204        C205   1.401       .  A
C204        H212   1.083       .  S
C205        H213   1.084       .  S
C206        C207   1.210       .  T
C208        C209   1.210       .  T
C214        C215   1.401       .  A
C214        C219   1.404       .  A
C214        C222   1.448       .  S
C215        C216   1.399       .  A
C215        H224   1.084       .  S
C216        C217   1.402       .  A
C216        H225   1.084       .  S
C217        C218   1.403       .  A
C217        C220   1.447       .  S
C218        C219   1.405       .  A
C218        H226   1.083       .  S
C219        H227   1.083       .  S
C220        C221   1.210       .  T
C222        C223   1.211       .  T
C228        C229   1.401       .  A
C228        C233   1.401       .  A
C228        C236   1.440       .  S
C229        C230   1.399       .  A
C229        H238   1.084       .  S
C230        C231   1.401       .  A
C230        H239   1.083       .  S
C231        C232   1.401       .  A
C231        C234   1.440       .  S
C232        C233   1.399       .  A
C232        H240   1.084       .  S
C233        H241   1.083       .  S
C234        C235   1.206       .  T
C236        C237   1.207       .  T
C242        C243   1.400       .  A
C242        C247   1.402       .  A
C242        C250   1.437       .  S
C243        C244   1.395       .  A
C243        H252   1.084       .  S
C244        C245   1.400       .  A
C244        H253   1.084       .  S
C245        C246   1.402       .  A
C245        C248   1.437       .  S
C246        C247   1.401       .  A
C246        H254   1.084       .  S
C247        H255   1.083       .  S
C248        C249   1.204       .  T
C250        C251   1.206       .  T
C256        C257   1.401       .  A
C256        C261   1.401       .  A
C256        C264   1.441       .  S
C257        C258   1.399       .  A
C257        H266   1.084       .  S
C258        C259   1.402       .  A
C258        H267   1.083       .  S
C259        C260   1.401       .  A
C259        C262   1.441       .  S
C260        C261   1.400       .  A
C260        H268   1.084       .  S
C261        H269   1.083       .  S
C262        C263   1.207       .  T
C264        C265   1.208       .  T
C270        C271   1.401       .  A
C270        C275   1.401       .  A
C270        C278   1.437       .  S
C271        C272   1.399       .  A
C271        H280   1.083       .  S
C272        C273   1.401       .  A
C272        H281   1.083       .  S
C273        C274   1.400       .  A
C273        C276   1.437       .  S
C274        C275   1.397       .  A
C274        H282   1.083       .  S
C275        H283   1.084       .  S
C276        C277   1.204       .  T
C278        C279   1.205       .  T
C284        C285   1.402       .  A
C284        C289   1.401       .  A
C284        C292   1.440       .  S
C285        C286   1.399       .  A
C285        H294   1.083       .  S
C286        C287   1.401       .  A
C286        H295   1.084       .  S
C287        C288   1.401       .  A
C287        C290   1.440       .  S
C288        C289   1.399       .  A
C288        H296   1.083       .  S
C289        H297   1.084       .  S
C290        C291   1.207       .  T
C292        C293   1.206       .  T
C298        C299   1.401       .  A
C298        C303   1.401       .  A
C298        C306   1.438       .  S
C299        C300   1.398       .  A
C299        H308   1.083       .  S
C300        C301   1.400       .  A
C300        H309   1.083       .  S
C301        C302   1.402       .  A
C301        C304   1.437       .  S
C302        C303   1.398       .  A
C302        H310   1.084       .  S
C303        H311   1.084       .  S
C304        C305   1.205       .  T
C306        C307   1.205       .  T
C312        C313   1.401       .  A
C312        C317   1.402       .  A
C312        C320   1.443       .  S
C313        C314   1.400       .  A
C313        H322   1.084       .  S
C314        C315   1.402       .  A
C314        H323   1.083       .  S
C315        C316   1.401       .  A
C315        C318   1.443       .  S
C316        C317   1.400       .  A
C316        H324   1.084       .  S
C317        H325   1.083       .  S
C318        C319   1.208       .  T
C320        C321   1.209       .  T
C326        C327   1.402       .  A
C326        C331   1.401       .  A
C326        C334   1.442       .  S
C327        C328   1.400       .  A
C327        H336   1.084       .  S
C328        C329   1.402       .  A
C328        H337   1.083       .  S
C329        C330   1.401       .  A
C329        C332   1.441       .  S
C330        C331   1.399       .  A
C330        H338   1.083       .  S
C331        H339   1.083       .  S
C332        C333   1.208       .  T
C334        C335   1.207       .  T
C340        C341   1.402       .  A
C340        C345   1.402       .  A
C340        C348   1.441       .  S
C341        C342   1.398       .  A
C341        H350   1.084       .  S
C342        C343   1.401       .  A
C342        H351   1.084       .  S
C343        C344   1.402       .  A
C343        C346   1.441       .  S
C344        C345   1.401       .  A
C344        H352   1.084       .  S
C345        H353   1.083       .  S
C346        C347   1.207       .  T
C348        C349   1.208       .  T
C354        C355   1.403       .  A
C354        C359   1.402       .  A
C354        C362   1.447       .  S
C355        C356   1.403       .  A
C355        H364   1.084       .  S
C356        C357   1.403       .  A
C356        H365   1.084       .  S
C357        C358   1.402       .  A
C357        C360   1.448       .  S
C358        C359   1.402       .  A
C358        H366   1.083       .  S
C359        H367   1.083       .  S
C360        C361   1.212       .  T
C362        C363   1.210       .  T
C368        C369   1.400       .  A
C368        C373   1.402       .  A
C368        C376   1.439       .  S
C369        C370   1.397       .  A
C369        H378   1.084       .  S
C370        C371   1.401       .  A
C370        H379   1.084       .  S
C371        C372   1.401       .  A
C371        C374   1.438       .  S
C372        C373   1.400       .  A
C372        H380   1.083       .  S
C373        H381   1.083       .  S
C374        C375   1.206       .  T
C376        C377   1.206       .  T
C382        C383   1.400       .  A
C382        C387   1.402       .  A
C382        C390   1.437       .  S
C383        C384   1.397       .  A
C383        H392   1.084       .  S
C384        C385   1.401       .  A
C384        H393   1.084       .  S
C385        C386   1.401       .  A
C385        C388   1.437       .  S
C386        C387   1.399       .  A
C386        H394   1.084       .  S
C387        H395   1.083       .  S
C388        C389   1.205       .  T
C390        C391   1.205       .  T
C396        C397   1.401       .  A
C396        C401   1.402       .  A
C396        C404   1.440       .  S
C397        C398   1.399       .  A
C397        H406   1.083       .  S
C398        C399   1.401       .  A
C398        H407   1.083       .  S
C399        C400   1.401       .  A
C399        C402   1.439       .  S
C400        C401   1.399       .  A
C400        H408   1.084       .  S
C401        H409   1.083       .  S
C402        C403   1.206       .  T
C404        C405   1.206       .  T
C410        C411   1.400       .  A
C410        C415   1.402       .  A
C410        C418   1.438       .  S
C411        C412   1.397       .  A
C411        H420   1.084       .  S
C412        C413   1.401       .  A
C412        H421   1.084       .  S
C413        C414   1.401       .  A
C413        C416   1.437       .  S
C414        C415   1.400       .  A
C414        H422   1.083       .  S
C415        H423   1.083       .  S
C416        C417   1.204       .  T
C418        C419   1.206       .  T
C424        C425   1.402       .  A
C424        C429   1.402       .  A
C424        C432   1.444       .  S
C425        C426   1.400       .  A
C425        H434   1.083       .  S
C426        C427   1.402       .  A
C426        H435   1.083       .  S
C427        C428   1.402       .  A
C427        C430   1.444       .  S
C428        C429   1.401       .  A
C428        H436   1.084       .  S
C429        H437   1.083       .  S
C430        C431   1.208       .  T
C432        C433   1.209       .  T
C438        C439   1.404       .  A
C438        C443   1.401       .  A
C438        C446   1.445       .  S
C439        C440   1.403       .  A
C439        H448   1.083       .  S
C440        C441   1.402       .  A
C440        H449   1.083       .  S
C441        C442   1.402       .  A
C441        C444   1.444       .  S
C442        C443   1.399       .  A
C442        H450   1.084       .  S
C443        H451   1.084       .  S
C444        C445   1.208       .  T
C446        C447   1.210       .  T
C452        C453   1.403       .  A
C452        C457   1.402       .  A
C452        C460   1.447       .  S
C453        C454   1.402       .  A
C453        H462   1.084       .  S
C454        C455   1.402       .  A
C454        H463   1.083       .  S
C455        C456   1.403       .  A
C455        C458   1.447       .  S
C456        C457   1.402       .  A
C456        H464   1.084       .  S
C457        H465   1.083       .  S
C458        C459   1.211       .  T
C460        C461   1.210       .  T
C466        C467   1.401       .  A
C466        C471   1.402       .  A
C466        C474   1.440       .  S
C467        C468   1.399       .  A
C467        H476   1.083       .  S
C468        C469   1.402       .  A
C468        H477   1.084       .  S
C469        C470   1.401       .  A
C469        C472   1.440       .  S
C470        C471   1.399       .  A
C470        H478   1.083       .  S
C471        H479   1.084       .  S
C472        C473   1.207       .  T
C474        C475   1.206       .  T
C480        C481   1.401       .  A
C480        C485   1.400       .  A
C480        C488   1.436       .  S
C481        C482   1.398       .  A
C481        H490   1.083       .  S
C482        C483   1.400       .  A
C482        H491   1.083       .  S
C483        C484   1.402       .  A
C483        C486   1.437       .  S
C484        C485   1.398       .  A
C484        H492   1.084       .  S
C485        H493   1.084       .  S
C486        C487   1.205       .  T
C488        C489   1.204       .  T
C494        C495   1.402       .  A
C494        C499   1.402       .  A
C494        C502   1.443       .  S
C495        C496   1.400       .  A
C495        H504   1.083       .  S
C496        C497   1.402       .  A
C496        H505   1.083       .  S
C497        C498   1.402       .  A
C497        C500   1.443       .  S
C498        C499   1.401       .  A
C498        H506   1.083       .  S
C499        H507   1.084       .  S
C500        C501   1.208       .  T
C502        C503   1.208       .  T
C508        C509   1.402       .  A
C508        C513   1.403       .  A
C508        C516   1.447       .  S
C509        C510   1.401       .  A
C509        H518   1.083       .  S
C510        C511   1.402       .  A
C510        H519   1.083       .  S
C511        C512   1.403       .  A
C511        C514   1.447       .  S
C512        C513   1.402       .  A
C512        H520   1.084       .  S
C513        H521   1.083       .  S
C514        C515   1.211       .  T
C516        C517   1.210       .  T
C522        C523   1.402       .  A
C522        C527   1.402       .  A
C522        C530   1.446       .  S
C523        C524   1.401       .  A
C523        H532   1.083       .  S
C524        C525   1.402       .  A
C524        H533   1.084       .  S
C525        C526   1.402       .  A
C525        C528   1.446       .  S
C526        C527   1.401       .  A
C526        H534   1.083       .  S
C527        H535   1.084       .  S
C528        C529   1.210       .  T
C530        C531   1.210       .  T
C536        C537   1.403       .  A
C536        C541   1.403       .  A
C536        C544   1.449       .  S
C537        C538   1.402       .  A
C537        H546   1.083       .  S
C538        C539   1.403       .  A
C538        H547   1.084       .  S
C539        C540   1.403       .  A
C539        C542   1.450       .  S
C540        C541   1.404       .  A
C540        H548   1.083       .  S
C541        H549   1.083       .  S
C542        C543   1.213       .  T
C544        C545   1.212       .  T
C550        C551   1.401       .  A
C550        C555   1.400       .  A
C550        C558   1.437       .  S
C551        C552   1.399       .  A
C551        H560   1.083       .  S
C552        C553   1.401       .  A
C552        H561   1.083       .  S
C553        C554   1.401       .  A
C553        C556   1.436       .  S
C554        C555   1.397       .  A
C554        H562   1.084       .  S
C555        H563   1.083       .  S
C556        C557   1.205       .  T
C558        C559   1.204       .  T
C564        C565   1.401       .  A
C564        C569   1.401       .  A
C564        C572   1.437       .  S
C565        C566   1.399       .  A
C565        H574   1.083       .  S
C566        C567   1.401       .  A
C566        H575   1.083       .  S
C567        C568   1.401       .  A
C567        C570   1.437       .  S
C568        C569   1.398       .  A
C568        H576   1.084       .  S
C569        H577   1.084       .  S
C570        C571   1.205       .  T
C572        C573   1.204       .  T
C578        C579   1.404       .  A
C578        C583   1.403       .  A
C578        C586   1.451       .  S
C579        C580   1.404       .  A
C579        H588   1.083       .  S
C580        C581   1.403       .  A
C580        H589   1.083       .  S
C581        C582   1.403       .  A
C581        C584   1.451       .  S
C582        C583   1.403       .  A
C582        H590   1.084       .  S
C583        H591   1.083       .  S
C584        C585   1.214       .  T
C586        C587   1.213       .  T
C592        C593   1.403       .  A
C592        C597   1.403       .  A
C592        C600   1.449       .  S
C593        C594   1.402       .  A
C593        H602   1.084       .  S
C594        C595   1.403       .  A
C594        H603   1.083       .  S
C595        C596   1.403       .  A
C595        C598   1.450       .  S
C596        C597   1.403       .  A
C596        H604   1.083       .  S
C597        H605   1.083       .  S
C598        C599   1.212       .  T
C600        C601   1.213       .  T
C606        C607   1.403       .  A
C606        C611   1.403       .  A
C606        C614   1.447       .  S
C607        C608   1.402       .  A
C607        H616   1.083       .  S
C608        C609   1.402       .  A
C608        H617   1.083       .  S
C609        C610   1.403       .  A
C609        C612   1.446       .  S
C610        C611   1.402       .  A
C610        H618   1.084       .  S
C611        H619   1.083       .  S
C612        C613   1.211       .  T
C614        C615   1.210       .  T
C620        C621   1.403       .  A
C620        C625   1.403       .  A
C620        C628   1.448       .  S
C621        C622   1.401       .  A
C621        H630   1.083       .  S
C622        C623   1.402       .  A
C622        H631   1.083       .  S
C623        C624   1.403       .  A
C623        C626   1.447       .  S
C624        C625   1.403       .  A
C624        H632   1.084       .  S
C625        H633   1.083       .  S
C626        C627   1.210       .  T
C628        C629   1.212       .  T
C634        C635   1.404       .  A
C634        C639   1.403       .  A
C634        C642   1.449       .  S
C635        C636   1.404       .  A
C635        H644   1.084       .  S
C636        C637   1.403       .  A
C636        H645   1.083       .  S
C637        C638   1.403       .  A
C637        C640   1.449       .  S
C638        C639   1.402       .  A
C638        H646   1.083       .  S
C639        H647   1.083       .  S
C640        C641   1.213       .  T
C642        C643   1.211       .  T
