geometry optimzed in LAMMPS
_audit_creation_date              2020-12-01 
_audit_creation_method            'lammps2cif' 
_symmetry_space_group_name_H-M    'P1' 
_symmetry_Int_Tables_number       1 
_symmetry_cell_setting            triclinic 
loop_ 
_symmetry_equiv_pos_as_xyz 
  x,y,z 
_cell_length_a                    25.57157875 
_cell_length_b                    25.191015367069877 
_cell_length_c                    25.189923732331184 
_cell_angle_alpha                 90.46515368546103 
_cell_angle_beta                  90.05532733723894 
_cell_angle_gamma                 90.20155436286898 
loop_ 
_atom_site_label 
_atom_site_type_symbol 
_atom_site_fract_x 
_atom_site_fract_y 
_atom_site_fract_z 
_atom_site_charge 
O1          O  0.54063193  0.56923353  0.69314823    -0.72200
O2          O  0.45214660  0.44621823  0.67221150    -0.72400
O3          O  0.55768783  0.46387466  0.68009076    -0.72300
O4          O  0.43482225  0.55183979  0.68430074    -0.72300
O5          O  0.45117562  0.57108267  0.60214415    -0.72200
O6          O  0.55121764  0.46285435  0.59484825    -0.72200
O7          O  0.44665851  0.46662486  0.58940237    -0.72200
O8          O  0.55505571  0.56830799  0.60822354    -0.72400
V9          V  0.49637589  0.50792093  0.68154574     1.35200
V10         V  0.50104253  0.51709544  0.60022662     1.35200
C11         C  0.56517848  0.58780481  0.65357555     0.77100
C12         C  0.43197697  0.43699508  0.62682039     0.77100
C13         C  0.57498392  0.44733921  0.63578522     0.77000
C14         C  0.42246254  0.57663752  0.64248049     0.76900
O15         O  0.83750664  0.56222211  0.29478633    -0.72200
O16         O  0.85311494  0.46366367  0.41136502    -0.72400
O17         O  0.84798468  0.45533613  0.30175661    -0.72300
O18         O  0.84512645  0.57100975  0.40239072    -0.72300
O19         O  0.76076966  0.56268146  0.40788010    -0.72200
O20         O  0.76362984  0.44804670  0.30695219    -0.72200
O21         O  0.76865933  0.45685329  0.41544121    -0.72200
O22         O  0.75355380  0.55476962  0.30232249    -0.72400
V23         V  0.84447691  0.51269882  0.35279281     1.35200
V24         V  0.76352090  0.50548854  0.35804841     1.35200
C25         C  0.79208934  0.57511024  0.27859148     0.77100
C26         C  0.81279020  0.44455454  0.43422689     0.77100
C27         C  0.80624901  0.43299812  0.28572643     0.77000
C28         C  0.80218138  0.58713716  0.42138839     0.76900
O29         O  0.56000024  0.85231251  0.25951845    -0.72200
O30         O  0.45332841  0.84730712  0.36753244    -0.72400
O31         O  0.55754218  0.86130024  0.36746000    -0.72300
O32         O  0.45237625  0.83960109  0.25942686    -0.72300
O33         O  0.46984860  0.75541936  0.25774966    -0.72200
O34         O  0.55881125  0.77604158  0.37882381    -0.72200
O35         O  0.45635616  0.76198092  0.36207322    -0.72200
O36         O  0.57478677  0.76879520  0.27341481    -0.72400
V37         V  0.50593610  0.84888838  0.31288858     1.35200
V38         V  0.51502659  0.76726569  0.31767103     1.35200
C39         C  0.58772219  0.81127436  0.25065999     0.77100
C40         C  0.43763239  0.80258319  0.38424180     0.77100
C41         C  0.57316330  0.82199227  0.39419773     0.77000
C42         C  0.44223640  0.79351810  0.24099893     0.76900
O43         O  0.25455907  0.54730136  0.30489335    -0.72200
O44         O  0.25058614  0.44405009  0.41244239    -0.72400
O45         O  0.25678539  0.44177643  0.30733712    -0.72300
O46         O  0.24787875  0.55115638  0.41021025    -0.72300
O47         O  0.16292100  0.54642339  0.40829857    -0.72200
O48         O  0.17213394  0.44300764  0.29878703    -0.72200
O49         O  0.16613241  0.43816552  0.40435338    -0.72200
O50         O  0.17020780  0.55026694  0.30268641    -0.72400
V51         V  0.25075447  0.49615556  0.35886961     1.35200
V52         V  0.16934513  0.49444208  0.35377615     1.35200
C53         C  0.21374460  0.56789563  0.28617104     0.77100
C54         C  0.20831321  0.42100569  0.42426838     0.77100
C55         C  0.21584823  0.42393641  0.28562227     0.77000
C56         C  0.20403193  0.56819798  0.42572391     0.76900
O57         O  0.54969308  0.24423419  0.30577971    -0.72200
O58         O  0.45513440  0.23396684  0.42168866    -0.72400
O59         O  0.55904240  0.24887701  0.41006543    -0.72300
O60         O  0.44568156  0.23057061  0.31564383    -0.72300
O61         O  0.45931132  0.14557684  0.31229269    -0.72200
O62         O  0.56768391  0.16359426  0.41671841    -0.72200
O63         O  0.46192623  0.14808692  0.41947994    -0.72200
O64         O  0.56571126  0.15993617  0.31105854    -0.72400
V65         V  0.50242827  0.23763048  0.36327732     1.35200
V66         V  0.51330429  0.15572771  0.36473869     1.35200
C67         C  0.57673115  0.20464101  0.29143435     0.77100
C68         C  0.44123926  0.18921211  0.43950540     0.77100
C69         C  0.58301758  0.20994236  0.42946993     0.77000
C70         C  0.43284756  0.18545490  0.29767230     0.76900
O71         O  0.55712035  0.54129849  0.09904891    -0.72200
O72         O  0.44539734  0.44583174  0.11400496    -0.72400
O73         O  0.54936885  0.43605970  0.11097285    -0.72300
O74         O  0.45382340  0.55054102  0.10226580    -0.72300
O75         O  0.44031179  0.52998126  0.01937385    -0.72200
O76         O  0.55654063  0.43648820  0.02510290    -0.72200
O77         O  0.45269549  0.42264504  0.03202589    -0.72200
O78         O  0.54333585  0.54356625  0.01428998    -0.72400
V79         V  0.50148786  0.49318871  0.10514157     1.35200
V80         V  0.49826502  0.48324696  0.02361188     1.35200
C81         C  0.56525447  0.56345807  0.05509659     0.77100
C82         C  0.43319310  0.41369572  0.07755663     0.77100
C83         C  0.57062682  0.41791724  0.06935442     0.77000
C84         C  0.42938960  0.55835818  0.05953048     0.76900
C85         C  0.70892962  0.74899562  0.56864541    -0.02900
C86         C  0.74468170  0.79546713  0.61129348    -0.02900
C87         C  0.74127195  0.28077503  0.58834205    -0.02900
C88         C  0.78104840  0.24766464  0.63601782    -0.02900
C89         C  0.28275689  0.74298052  0.55666842    -0.02900
C90         C  0.23640986  0.78354183  0.59234572    -0.02900
C91         C  0.73602588  0.71987275  0.09665125    -0.02900
C92         C  0.77520124  0.75914475  0.05138758    -0.02900
C93         C  0.27298489  0.25779341  0.57822561    -0.02900
C94         C  0.22784325  0.22135519  0.62127531    -0.02900
C95         C  0.26295119  0.71198666  0.10356747    -0.02900
C96         C  0.21659732  0.75045332  0.06453104    -0.02900
C97         C  0.74121393  0.26883914  0.13008278    -0.02900
C98         C  0.78297890  0.22294358  0.09323635    -0.02900
C99         C  0.27169703  0.24979341  0.14291110    -0.02900
C100        C  0.22846538  0.21501326  0.10029731    -0.02900
O101        O  0.24264592  0.03860597  0.91294099    -0.72200
O102        O  0.24597066  0.93911076  0.80321121    -0.72400
O103        O  0.25070400  0.93374204  0.90943305    -0.67900
O104        O  0.23953911  0.04329826  0.80826850    -0.72300
O105        O  0.32347839  0.04984202  0.80459330    -0.72200
O106        O  0.33537340  0.94106831  0.90813049    -0.72200
O107        O  0.33012534  0.94200641  0.79952153    -0.72200
O108        O  0.32618334  0.04897850  0.91099713    -0.72400
V109        V  0.24664979  0.98863109  0.85849949     1.35200
V110        V  0.32759103  0.99508924  0.85586594     1.35200
C111        C  0.28215865  0.06285776  0.92994438     0.77100
C112        C  0.28723413  0.92321696  0.78143642     0.77100
C113        C  0.29479267  0.91920071  0.92663801     0.77000
C114        C  0.27928259  0.06665888  0.79010620     0.76900
O115        O  0.06623109  0.32893964  0.80527326    -0.72200
O116        O  0.96956417  0.34177002  0.92391230    -0.72400
O117        O  0.07461357  0.32871339  0.91327413    -0.72300
O118        O  0.96159924  0.34357102  0.81479579    -0.72300
O119        O  0.95696832  0.25786065  0.80788991    -0.72200
O120        O  0.05844810  0.24444192  0.91928780    -0.72200
O121        O  0.95430419  0.25729816  0.91622547    -0.72200
O122        O  0.06134570  0.24400688  0.81368639    -0.72400
V123        V  0.01785109  0.33442579  0.86450987     1.35200
V124        V  0.00771960  0.25263943  0.86425219     1.35200
C125        C  0.08013436  0.28303857  0.78919506     0.77100
C126        C  0.94483562  0.30080672  0.93968117     0.77100
C127        C  0.08498579  0.28440496  0.93414793     0.77000
C128        C  0.94172198  0.30311290  0.79222148     0.76900
O129        O  0.04492228  0.04087162  0.19891034    -0.72200
O130        O  0.94523966  0.92466478  0.20029512    -0.72400
O131        O  0.05162447  0.93444809  0.18817883    -0.72300
O132        O  0.94066206  0.03337043  0.21411491    -0.72300
O133        O  0.93677904  0.04763204  0.12931978    -0.72200
O134        O  0.03264591  0.93498140  0.10467150    -0.72200
O135        O  0.92875486  0.94131398  0.11753459    -0.72200
O136        O  0.03937779  0.03962233  0.11350345    -0.72400
V137        V  0.99511131  0.98307443  0.19922756     1.35200
V138        V  0.98430609  0.99061672  0.11801569     1.35200
C139        C  0.05979836  0.05935415  0.15450031     0.77100
C140        C  0.91950652  0.91398021  0.15808550     0.77100
C141        C  0.06226755  0.91888965  0.14153075     0.77000
C142        C  0.92314261  0.06061154  0.17605609     0.76900
O143        O  0.73089715  0.08244191  0.80578648    -0.72200
O144        O  0.73836066  0.96009260  0.88784276    -0.72400
O145        O  0.73185563  0.97783886  0.78448634    -0.72300
O146        O  0.73476512  0.06426566  0.90965155    -0.72300
O147        O  0.64988690  0.06718722  0.90989743    -0.72200
O148        O  0.64776140  0.96957626  0.79274947    -0.72200
O149        O  0.65490957  0.96029649  0.90111738    -0.72200
O150        O  0.64618685  0.07844090  0.80375653    -0.72400
V151        V  0.73212375  0.02120006  0.84693467     1.35200
V152        V  0.65093099  0.01867547  0.85135641     1.35200
C153        C  0.68830238  0.10238290  0.79114691     0.77100
C154        C  0.69968481  0.94112757  0.91199036     0.77100
C155        C  0.68947934  0.95657999  0.76893642     0.77000
C156        C  0.69278395  0.08135892  0.93042769     0.76900
O157        O  0.04454813  0.03671976  0.59811838    -0.72200
O158        O  0.93548644  0.93551760  0.57508341    -0.72400
O159        O  0.04131854  0.93262760  0.57879488    -0.72300
O160        O  0.94087816  0.03915368  0.59753510    -0.72300
O161        O  0.94531430  0.06169055  0.51536381    -0.72200
O162        O  0.04238073  0.94636430  0.49376742    -0.72200
O163        O  0.93436131  0.95570446  0.49145773    -0.72200
O164        O  0.04939762  0.05053692  0.51397925    -0.72400
V165        V  0.99042579  0.98606951  0.58549844     1.35200
V166        V  0.99241456  0.00270152  0.50482848     1.35200
C167        C  0.06645901  0.06056129  0.55997190     0.77100
C168        C  0.91465695  0.93009051  0.52966357     0.77100
C169        C  0.06133615  0.92317872  0.53420495     0.77000
C170        C  0.92913210  0.07179588  0.56209626     0.76900
O171        O  0.05170631  0.75780478  0.75797976    -0.72200
O172        O  0.96153838  0.75550950  0.87662610    -0.72400
O173        O  0.06378265  0.74794900  0.86274288    -0.72300
O174        O  0.94780367  0.76632240  0.77269038    -0.72300
O175        O  0.94552363  0.68187787  0.75531252    -0.72200
O176        O  0.04778883  0.66350571  0.86566233    -0.72200
O177        O  0.94407809  0.67250184  0.86154457    -0.72200
O178        O  0.05194710  0.67146899  0.75754613    -0.72400
V179        V  0.00607504  0.75529145  0.81704892     1.35200
V180        V  0.99786502  0.67348695  0.80966844     1.35200
C181        C  0.06948819  0.71479226  0.73951463     0.77100
C182        C  0.93593783  0.71429948  0.88822886     0.77100
C183        C  0.07129552  0.70386094  0.88470564     0.77000
C184        C  0.92672459  0.72792084  0.74819292     0.76900
C185        C  0.16840822  0.24297305  0.96820592    -0.02300
C186        C  0.12718271  0.27921630  0.97487906     0.07400
C187        C  0.13109393  0.31444479  0.01834203    -0.02400
C188        C  0.16357177  0.30045590  0.06272141    -0.02400
C189        C  0.20282785  0.25726143  0.05665658     0.07600
C190        C  0.21235157  0.24970736  0.00118743    -0.02600
Br191      Br  0.24555207  0.31022820  0.96593404    -0.01100
Br192      Br  0.17981124  0.21482761  0.89874402    -0.01200
Br193      Br  0.13683406  0.33934246  0.12416648    -0.01100
Br194      Br  0.09364230  0.38147148  0.01556267    -0.01100
C195        C  0.31469279  0.11948899  0.00811763    -0.02300
C196        C  0.27409150  0.10360240  0.97289692     0.07400
C197        C  0.22211038  0.11667381  0.98791631    -0.02400
C198        C  0.21334343  0.13042812  0.04032339    -0.02400
C199        C  0.25047761  0.16260972  0.06764905     0.07600
C200        C  0.30217298  0.14137539  0.05918140    -0.02600
Br201      Br  0.33208567  0.09006359  0.10683318    -0.01100
Br202      Br  0.38740339  0.10675766  0.99096955    -0.01200
Br203      Br  0.19751461  0.06289485  0.07280042    -0.01100
Br204      Br  0.15900993  0.09659217  0.94962731    -0.01100
C205        C  0.13907424  0.11355006  0.18539895    -0.02300
C206        C  0.09901492  0.10340140  0.14834694     0.07400
C207        C  0.09920316  0.13452206  0.10202327    -0.02400
C208        C  0.12897964  0.18119095  0.10114096    -0.02400
C209        C  0.17890086  0.18548057  0.12899786     0.07600
C210        C  0.18318225  0.14442260  0.16954924    -0.02600
Br211      Br  0.24544533  0.10929209  0.19190120    -0.01100
Br212      Br  0.14008081  0.07663826  0.25267022    -0.01200
Br213      Br  0.07541058  0.23415409  0.09674860    -0.01100
Br214      Br  0.05442153  0.12116234  0.04078732    -0.01100
C215        C  0.69026918  0.17142750  0.97347147    -0.02300
C216        C  0.69519742  0.11654982  0.97789559     0.07400
C217        C  0.71811567  0.09652987  0.02286413    -0.02400
C218        C  0.75292732  0.12781653  0.05222190    -0.02400
C219        C  0.74957118  0.18584688  0.05254389     0.07600
C220        C  0.71741385  0.20655446  0.00905273    -0.02600
Br221      Br  0.72005596  0.27873306  0.98205563    -0.01100
Br222      Br  0.64205543  0.19639613  0.91989299    -0.01200
Br223      Br  0.81460254  0.08402358  0.06108813    -0.01100
Br224      Br  0.69954251  0.02590866  0.04530082    -0.01100
C225        C  0.91124824  0.30331384  0.03604542    -0.02300
C226        C  0.90207444  0.30113628  0.98093835     0.07400
C227        C  0.85460961  0.28023766  0.96480970    -0.02400
C228        C  0.82841843  0.24502254  0.99812561    -0.02400
C229        C  0.82664077  0.25335714  0.05533977     0.07600
C230        C  0.87376303  0.28239263  0.07354689    -0.02600
Br231      Br  0.89724113  0.28977875  0.14708280    -0.01100
Br232      Br  0.97489747  0.33665218  0.05941651    -0.01200
Br233      Br  0.82452355  0.17678564  0.96135819    -0.01100
Br234      Br  0.83459146  0.28631499  0.89164837    -0.01100
C235        C  0.80159219  0.14014224  0.16707151    -0.02300
C236        C  0.81913607  0.18178513  0.12975422     0.07400
C237        C  0.87573299  0.17769958  0.12218204    -0.02400
C238        C  0.90791477  0.15454835  0.16007247    -0.02400
C239        C  0.89071653  0.10917119  0.18410630     0.07600
C240        C  0.83767023  0.10586812  0.19394854    -0.02600
Br241      Br  0.81812006  0.05767444  0.25008238    -0.01100
Br242      Br  0.73390625  0.11014938  0.17465245    -0.01200
Br243      Br  0.97989230  0.17421118  0.16814462    -0.01100
Br244      Br  0.91330838  0.17065606  0.05534152    -0.01100
C245        C  0.13808123  0.66327755  0.94774622    -0.02300
C246        C  0.10198104  0.70280657  0.93494098     0.07400
C247        C  0.09238662  0.74167965  0.97316449    -0.02400
C248        C  0.11881632  0.73953832  0.02159218    -0.02400
C249        C  0.17205949  0.71871502  0.02583277     0.07600
C250        C  0.17608763  0.67285772  0.98921452    -0.02600
Br251      Br  0.23302112  0.62600212  0.97855688    -0.01100
Br252      Br  0.13806339  0.59936873  0.90394982    -0.01200
Br253      Br  0.06752469  0.74613138  0.07749766    -0.01100
Br254      Br  0.03676580  0.79380293  0.96493737    -0.01100
C255        C  0.28751764  0.88439240  0.01876331    -0.02300
C256        C  0.29738477  0.87538910  0.96527855     0.07400
C257        C  0.29551263  0.82407733  0.94580860    -0.02400
C258        C  0.26616438  0.78513383  0.97299791    -0.02400
C259        C  0.25416755  0.79018629  0.02981775     0.07600
C260        C  0.27084980  0.84225841  0.05209516    -0.02600
Br261      Br  0.26602974  0.86558085  0.12586512    -0.01100
Br262      Br  0.29773354  0.95623344  0.04495222    -0.01200
Br263      Br  0.23204905  0.74319127  0.91897393    -0.01100
Br264      Br  0.32702683  0.81152641  0.87654855    -0.01100
C265        C  0.12827298  0.88333025  0.07745826    -0.02300
C266        C  0.10793782  0.88315566  0.12867522     0.07400
C267        C  0.12837758  0.84615984  0.16429336    -0.02400
C268        C  0.15524790  0.80005074  0.14558769    -0.02400
C269        C  0.17757350  0.79656813  0.09199762     0.07600
C270        C  0.15860524  0.84060699  0.05809555    -0.02600
Br271      Br  0.16413103  0.84542105  0.98075618    -0.01100
Br272      Br  0.11902674  0.94709553  0.03477696    -0.01200
Br273      Br  0.12749091  0.74264001  0.18770237    -0.01100
Br274      Br  0.11767149  0.85721544  0.23997983    -0.01100
C275        C  0.13919482  0.09746549  0.61738198    -0.02300
C276        C  0.11180200  0.09788810  0.56903478     0.07400
C277        C  0.12910387  0.13498010  0.53051497    -0.02400
C278        C  0.16238970  0.17791312  0.54649921    -0.02400
C279        C  0.19814352  0.17207586  0.59140459     0.07600
C280        C  0.18769551  0.12309980  0.62023856    -0.02600
Br281      Br  0.23582115  0.06570948  0.63086685    -0.01100
Br282      Br  0.11952612  0.05330839  0.67716747    -0.01200
Br283      Br  0.13641841  0.24428330  0.51792057    -0.01100
Br284      Br  0.10166137  0.13438853  0.45886184    -0.01100
C285        C  0.22529069  0.13850668  0.74756546    -0.02300
C286        C  0.27349267  0.11238790  0.75310426     0.07400
C287        C  0.31530520  0.13174495  0.72229854    -0.02400
C288        C  0.30341551  0.16015255  0.67538650    -0.02400
C289        C  0.25632997  0.19360725  0.67298549     0.07600
C290        C  0.22508776  0.18675262  0.72039981    -0.02600
Br291      Br  0.22578906  0.23738853  0.77769505    -0.01100
Br292      Br  0.16622480  0.12348531  0.79317888    -0.01200
Br293      Br  0.34218584  0.12273002  0.62034737    -0.01100
Br294      Br  0.38753656  0.11431031  0.73832945    -0.01100
C295        C  0.16759649  0.30261289  0.66522172    -0.02300
C296        C  0.17358143  0.25034366  0.64451461     0.07400
C297        C  0.12872211  0.21863074  0.66111352    -0.02400
C298        C  0.10647742  0.22443164  0.71185677    -0.02400
C299        C  0.11340199  0.27267725  0.74049598     0.07600
C300        C  0.14751954  0.31090009  0.71742444    -0.02600
Br301      Br  0.16007751  0.37866502  0.75078145    -0.01100
Br302      Br  0.11485771  0.34060915  0.62619470    -0.01200
Br303      Br  0.05681553  0.16924235  0.73300427    -0.01100
Br304      Br  0.06911396  0.20765125  0.61451103    -0.01100
C305        C  0.86047723  0.75987574  0.92744864    -0.02300
C306        C  0.89463552  0.71712305  0.92890119     0.07400
C307        C  0.88464286  0.67611646  0.96541877    -0.02400
C308        C  0.84399283  0.68224032  0.00459389    -0.02400
C309        C  0.80930269  0.72839413  0.00374270     0.07600
C310        C  0.81270106  0.75343255  0.95217680    -0.02600
Br311      Br  0.76876268  0.73305007  0.89313120    -0.01100
Br312      Br  0.86691807  0.81617880  0.87554734    -0.01200
Br313      Br  0.83729432  0.62100657  0.04811098    -0.01100
Br314      Br  0.93188635  0.61598069  0.96601947    -0.01100
C315        C  0.69969334  0.80628763  0.98324932    -0.02300
C316        C  0.74797272  0.80708380  0.01479931     0.07400
C317        C  0.78005780  0.85386970  0.00080555    -0.02400
C318        C  0.75917456  0.89967676  0.97744031    -0.02400
C319        C  0.71057231  0.89852079  0.95205230     0.07600
C320        C  0.68026664  0.85241702  0.95641481    -0.02600
Br321      Br  0.61302815  0.85184608  0.92025553    -0.01100
Br322      Br  0.66403727  0.74447942  0.95585598    -0.01200
Br323      Br  0.79932870  0.96596205  0.98066294    -0.01100
Br324      Br  0.85614042  0.86040998  0.00431408    -0.01100
C325        C  0.86867396  0.78882433  0.10084307    -0.02300
C326        C  0.81261464  0.79604495  0.09135474     0.07400
C327        C  0.79394806  0.84697975  0.11460279    -0.02400
C328        C  0.82834176  0.88327452  0.14116508    -0.02400
C329        C  0.87995858  0.87029189  0.15257728     0.07600
C330        C  0.89703115  0.81988988  0.13859523    -0.02600
Br331      Br  0.96500649  0.79862628  0.16496880    -0.01100
Br332      Br  0.91920839  0.75803159  0.05274007    -0.01200
Br333      Br  0.80640990  0.95384635  0.16229442    -0.01100
Br334      Br  0.72541969  0.87963251  0.10551287    -0.01100
C335        C  0.14234189  0.72811573  0.60913118    -0.02300
C336        C  0.19534875  0.74460928  0.62631063     0.07400
C337        C  0.20378298  0.73164819  0.68260488    -0.02400
C338        C  0.16318966  0.71326173  0.71598955    -0.02400
C339        C  0.11173418  0.71610199  0.69969376     0.07600
C340        C  0.10098254  0.72108363  0.64617487    -0.02600
Br341      Br  0.02873758  0.70902019  0.62511817    -0.01100
Br342      Br  0.12183945  0.69476006  0.54242104    -0.01200
Br343      Br  0.17628400  0.68261425  0.78538216    -0.01100
Br344      Br  0.26660734  0.73913001  0.72302332    -0.01100
C345        C  0.30755379  0.84921952  0.64667896    -0.02300
C346        C  0.25637366  0.82507189  0.63806737     0.07400
C347        C  0.21755121  0.84477489  0.67520218    -0.02400
C348        C  0.23172134  0.86351604  0.72555681    -0.02400
C349        C  0.28141902  0.88577664  0.73460189     0.07600
C350        C  0.31908539  0.87947370  0.69410906    -0.02600
Br351      Br  0.38718556  0.91236277  0.70357713    -0.01100
Br352      Br  0.36121400  0.85589505  0.59283776    -0.01200
Br353      Br  0.18312130  0.85025640  0.78354892    -0.01100
Br354      Br  0.14266936  0.84908757  0.66226579    -0.01100
C355        C  0.10619257  0.83467279  0.53489714    -0.02300
C356        C  0.10897460  0.88962020  0.53243485     0.07400
C357        C  0.15833011  0.91294618  0.53742021    -0.02400
C358        C  0.20154869  0.88242155  0.55591475    -0.02400
C359        C  0.20000408  0.82361097  0.55529131     0.07600
C360        C  0.15295857  0.80570003  0.52926015    -0.02600
Br361      Br  0.15301403  0.78825111  0.45479252    -0.01100
Br362      Br  0.03948597  0.80116080  0.52527526    -0.01200
Br363      Br  0.25968011  0.92827676  0.57378706    -0.01100
Br364      Br  0.16571698  0.98643335  0.51706898    -0.01100
C365        C  0.70247717  0.17749673  0.66686493    -0.02300
C366        C  0.74676607  0.21356655  0.67849413     0.07400
C367        C  0.76384961  0.20971152  0.73312802    -0.02400
C368        C  0.73227630  0.18697863  0.77258436    -0.02400
C369        C  0.69174448  0.15210745  0.75947329     0.07600
C370        C  0.67309465  0.15229904  0.70787739    -0.02600
Br371      Br  0.60913982  0.11247846  0.69428762    -0.01100
Br372      Br  0.69263587  0.13411080  0.60480640    -0.01200
Br373      Br  0.75167410  0.19335682  0.84588036    -0.01100
Br374      Br  0.83675831  0.20299265  0.75325983    -0.01100
C375        C  0.81065692  0.31870531  0.72081468    -0.02300
C376        C  0.81921952  0.29066670  0.66981946     0.07400
C377        C  0.87355211  0.29613203  0.65707554    -0.02400
C378        C  0.91142376  0.28743402  0.69696895    -0.02400
C379        C  0.90207412  0.30790969  0.74801393     0.07600
C380        C  0.85365628  0.33282673  0.75512121    -0.02600
Br381      Br  0.84933407  0.39012557  0.80672595    -0.01100
Br382      Br  0.74720272  0.33827778  0.75416551    -0.01200
Br383      Br  0.98227904  0.27883588  0.67651833    -0.01100
Br384      Br  0.89437418  0.36468248  0.62850593    -0.01100
C385        C  0.87950821  0.12427069  0.62993660    -0.02300
C386        C  0.89742645  0.11963197  0.57784598     0.07400
C387        C  0.88647697  0.16302173  0.54516655    -0.02400
C388        C  0.85926694  0.20800650  0.56704440    -0.02400
C389        C  0.82210923  0.20218755  0.61154781     0.07600
C390        C  0.83351942  0.15229765  0.63928692    -0.02600
Br391      Br  0.79114948  0.10112483  0.67769385    -0.01100
Br392      Br  0.91670505  0.09528923  0.69057655    -0.01200
Br393      Br  0.89741353  0.26953358  0.54528495    -0.01100
Br394      Br  0.91680063  0.16577358  0.47461885    -0.01100
C395        C  0.78629193  0.72999948  0.69174906    -0.02300
C396        C  0.78873176  0.77356704  0.65433436     0.07400
C397        C  0.83349863  0.80695715  0.66726295    -0.02400
C398        C  0.88063305  0.78600670  0.68518619    -0.02400
C399        C  0.88051916  0.73898103  0.71374706     0.07600
C400        C  0.83218589  0.71262560  0.71987455    -0.02600
Br401      Br  0.82898325  0.65415455  0.76927862    -0.01100
Br402      Br  0.72387105  0.69317166  0.71219218    -0.01200
Br403      Br  0.94481351  0.82495829  0.67159093    -0.01100
Br404      Br  0.83098352  0.88182651  0.68142536    -0.01100
C405        C  0.71116651  0.82302691  0.70786371    -0.02300
C406        C  0.70600903  0.82942745  0.65132726     0.07400
C407        C  0.67114181  0.87350988  0.64017785    -0.02400
C408        C  0.65953806  0.91193335  0.68149457    -0.02400
C409        C  0.69045081  0.91301326  0.72832701     0.07600
C410        C  0.72103653  0.86818363  0.73831034    -0.02600
Br411      Br  0.75817342  0.85950930  0.80395558    -0.01100
Br412      Br  0.65469801  0.79104522  0.74800718    -0.01200
Br413      Br  0.60792395  0.96645069  0.67125655    -0.01100
Br414      Br  0.64407092  0.89154521  0.57114022    -0.01100
C415        C  0.78071904  0.89258461  0.56719128    -0.02300
C416        C  0.78337301  0.83415277  0.57491928     0.07400
C417        C  0.83182553  0.81206171  0.55167739    -0.02400
C418        C  0.86875500  0.84322572  0.52387701    -0.02400
C419        C  0.86591716  0.89763197  0.52392268     0.07600
C420        C  0.81856786  0.92053514  0.53655053    -0.02600
Br421      Br  0.80975055  0.99326853  0.51253898    -0.01100
Br422      Br  0.75091547  0.94824783  0.61119518    -0.01200
Br423      Br  0.91708650  0.81256457  0.47355522    -0.01100
Br424      Br  0.86413880  0.74467043  0.56527689    -0.01100
C425        C  0.70272680  0.36027046  0.07805423    -0.02300
C426        C  0.69767285  0.30535148  0.09666523     0.07400
C427        C  0.64207771  0.29138239  0.09768525    -0.02400
C428        C  0.60535030  0.33182573  0.10545147    -0.02400
C429        C  0.61129018  0.37672844  0.07299051     0.07600
C430        C  0.66098126  0.38323983  0.04952632    -0.02600
Br431      Br  0.67484918  0.43796465  0.99811774    -0.01100
Br432      Br  0.70926958  0.42311863  0.12390792    -0.01200
Br433      Br  0.54145358  0.31483674  0.14142815    -0.01100
Br434      Br  0.60702139  0.25813423  0.03765281    -0.01100
C435        C  0.64561800  0.67017321  0.11505563    -0.02300
C436        C  0.68638621  0.68383987  0.07625800     0.07400
C437        C  0.68039759  0.65440858  0.02652261    -0.02400
C438        C  0.63583538  0.62165805  0.01547425    -0.02400
C439        C  0.59865148  0.61201430  0.05470706     0.07600
C440        C  0.60015536  0.64240116  0.10100084    -0.02600
Br441      Br  0.53928338  0.64369703  0.14768405    -0.01100
Br442      Br  0.65085838  0.67503449  0.19225578    -0.01200
Br443      Br  0.62694966  0.58601416  0.94728235    -0.01100
Br444      Br  0.73448878  0.63998548  0.97634997    -0.01100
C445        C  0.29263194  0.60792640  0.07687682    -0.02300
C446        C  0.29666196  0.66636021  0.06981086     0.07400
C447        C  0.34407021  0.67902085  0.04155679    -0.02400
C448        C  0.38998747  0.64873793  0.04861837    -0.02400
C449        C  0.38474783  0.59480983  0.05885410     0.07600
C450        C  0.33521727  0.57381301  0.06566027    -0.02600
Br451      Br  0.32776089  0.49721101  0.05694841    -0.01100
Br452      Br  0.23209028  0.56495634  0.09286882    -0.01200
Br453      Br  0.45701576  0.67432276  0.02386977    -0.01100
Br454      Br  0.34250252  0.69285795  0.96677907    -0.01100
C455        C  0.37238391  0.33606288  0.05139844    -0.02300
C456        C  0.39798072  0.36711245  0.09041503     0.07400
C457        C  0.39095191  0.35270013  0.14396123    -0.02400
C458        C  0.35131459  0.31669058  0.15878925    -0.02400
C459        C  0.32059614  0.28569435  0.12004836     0.07600
C460        C  0.33821929  0.29329774  0.06562739    -0.02600
Br461      Br  0.33488914  0.24106745  0.01028063    -0.01100
Br462      Br  0.38526131  0.35059736  0.97683860    -0.01200
Br463      Br  0.33810411  0.31992162  0.23520497    -0.01100
Br464      Br  0.43677662  0.38112350  0.19996884    -0.01100
C465        C  0.41301313  0.20506444  0.53314211    -0.02300
C466        C  0.40138777  0.18641697  0.48259699     0.07400
C467        C  0.35207134  0.16424994  0.47491354    -0.02400
C468        C  0.31075004  0.17614277  0.51122985    -0.02400
C469        C  0.31719298  0.21644915  0.55300818     0.07600
C470        C  0.37270851  0.22050756  0.56843805    -0.02600
Br471      Br  0.39781179  0.23902301  0.63965323    -0.01100
Br472      Br  0.48375652  0.19644426  0.55620223    -0.01200
Br473      Br  0.26095031  0.11846713  0.51061895    -0.01100
Br474      Br  0.34638390  0.10844643  0.42112855    -0.01100
C475        C  0.61468782  0.25335927  0.51109990    -0.02300
C476        C  0.62527843  0.21965626  0.46887688     0.07400
C477        C  0.67359614  0.19271221  0.46897132    -0.02400
C478        C  0.71211022  0.20322542  0.50975348    -0.02400
C479        C  0.70159297  0.24150295  0.55243460     0.07600
C480        C  0.64558504  0.25006913  0.55574981    -0.02600
Br481      Br  0.60110412  0.22701108  0.61175465    -0.01100
Br482      Br  0.55573946  0.30130224  0.51367208    -0.01200
Br483      Br  0.76798849  0.15081422  0.50975270    -0.01100
Br484      Br  0.68760125  0.14446403  0.41067217    -0.01100
C485        C  0.65380311  0.25614833  0.26219879    -0.02300
C486        C  0.62163799  0.21241905  0.25462050     0.07400
C487        C  0.62779742  0.18241334  0.20845721    -0.02400
C488        C  0.66228907  0.19960850  0.16719118    -0.02400
C489        C  0.69934379  0.24377594  0.17417797     0.07600
C490        C  0.68355112  0.27586441  0.21992707    -0.02600
Br491      Br  0.68074854  0.35190750  0.22194487    -0.01100
Br492      Br  0.65482653  0.29152224  0.33104316    -0.01200
Br493      Br  0.64570717  0.16196959  0.10300188    -0.01100
Br494      Br  0.58858644  0.11627175  0.20323525    -0.01100
C495        C  0.29639307  0.20900189  0.24247256    -0.02300
C496        C  0.30566173  0.21256119  0.18487423     0.07400
C497        C  0.35804061  0.19095500  0.17153814    -0.02400
C498        C  0.39092398  0.16680349  0.20972858    -0.02400
C499        C  0.38621324  0.18149992  0.26216372     0.07600
C500        C  0.33857388  0.20179349  0.27853665    -0.02600
Br501      Br  0.33299391  0.21954058  0.35231816    -0.01100
Br502      Br  0.23170752  0.20051015  0.28076430    -0.01200
Br503      Br  0.44772590  0.11944387  0.19111250    -0.01100
Br504      Br  0.40145265  0.20185825  0.10968894    -0.01100
C505        C  0.21185696  0.60762205  0.51510494    -0.02300
C506        C  0.20227946  0.61418777  0.46161283     0.07400
C507        C  0.20603078  0.66423183  0.43984998    -0.02400
C508        C  0.23689489  0.70311236  0.46559384    -0.02400
C509        C  0.24607091  0.70155624  0.52291141     0.07600
C510        C  0.22782162  0.65114645  0.54709254    -0.02600
Br511      Br  0.22983101  0.63071774  0.62184076    -0.01100
Br512      Br  0.20336589  0.53695663  0.54309967    -0.01200
Br513      Br  0.27733732  0.73703210  0.41093943    -0.01100
Br514      Br  0.17569992  0.67515119  0.36998436    -0.01100
C515        C  0.23776905  0.32861083  0.44269154    -0.02300
C516        C  0.20998932  0.37332932  0.45835755     0.07400
C517        C  0.18987924  0.37416160  0.50908660    -0.02400
C518        C  0.21526460  0.34354069  0.54823156    -0.02400
C519        C  0.24048836  0.29263252  0.53465123     0.07600
C520        C  0.24205004  0.28460319  0.47716429    -0.02600
Br521      Br  0.23201668  0.21977461  0.43782942    -0.01100
Br522      Br  0.27088421  0.32887932  0.37412983    -0.01200
Br523      Br  0.22989471  0.39116830  0.60713521    -0.01100
Br524      Br  0.13460678  0.42377988  0.52488674    -0.01100
C525        C  0.26744507  0.63446021  0.23864347    -0.02300
C526        C  0.21871290  0.61018964  0.24488001     0.07400
C527        C  0.17993464  0.62047288  0.20672936    -0.02400
C528        C  0.19147878  0.65106668  0.16042323    -0.02400
C529        C  0.24267991  0.67490131  0.15206943     0.07600
C530        C  0.28151032  0.65638765  0.19000646    -0.02600
Br531      Br  0.35658429  0.65123763  0.17817126    -0.01100
Br532      Br  0.31541762  0.64187255  0.29823728    -0.01200
Br533      Br  0.13795786  0.64285610  0.10683592    -0.01100
Br534      Br  0.10976147  0.59271425  0.21783906    -0.01100
C535        C  0.24158040  0.39314549  0.19661346    -0.02300
C536        C  0.21934621  0.38196245  0.24551517     0.07400
C537        C  0.19618059  0.33260713  0.25400285    -0.02400
C538        C  0.20126300  0.29163402  0.21565518    -0.02400
C539        C  0.23737879  0.29700669  0.17143466     0.07600
C540        C  0.24637132  0.35284605  0.15814600    -0.02600
Br541      Br  0.25580095  0.37964444  0.08657783    -0.01100
Br542      Br  0.26580910  0.46450542  0.18291237    -0.01200
Br543      Br  0.13760930  0.24913612  0.21632056    -0.01100
Br544      Br  0.15256839  0.32339684  0.31675723    -0.01100
C545        C  0.69173099  0.81603738  0.48354012    -0.02300
C546        C  0.67185098  0.78142694  0.52640711     0.07400
C547        C  0.61522252  0.77325195  0.52208710    -0.02400
C548        C  0.58408404  0.80504110  0.48948533    -0.02400
C549        C  0.60445890  0.82764461  0.44446789     0.07600
C550        C  0.65763438  0.83911691  0.44476447    -0.02600
Br551      Br  0.68131608  0.89010112  0.39291407    -0.01100
Br552      Br  0.76220506  0.81874482  0.45689186    -0.01200
Br553      Br  0.51260249  0.81987994  0.50608871    -0.01100
Br554      Br  0.57638836  0.70704524  0.53037505    -0.01100
C555        C  0.36399845  0.83349286  0.44651974    -0.02300
C556        C  0.40104308  0.79552478  0.43034371     0.07400
C557        C  0.40514311  0.74993683  0.46158281    -0.02400
C558        C  0.37868113  0.74844277  0.51020390    -0.02400
C559        C  0.32695897  0.77211268  0.51721011     0.07600
C560        C  0.32252094  0.81837382  0.48186888    -0.02600
Br561      Br  0.26157129  0.85561050  0.46014446    -0.01100
Br562      Br  0.36684481  0.90437719  0.41665981    -0.01200
Br563      Br  0.42980677  0.73191833  0.56439581    -0.01100
Br564      Br  0.45536528  0.69331173  0.44662658    -0.01100
C565        C  0.62521896  0.81737269  0.15993229    -0.02300
C566        C  0.63332792  0.81020700  0.21344565     0.07400
C567        C  0.68202367  0.79070800  0.22903648    -0.02400
C568        C  0.72045153  0.77515748  0.19092893    -0.02400
C569        C  0.70573427  0.76315076  0.13594289     0.07600
C570        C  0.65453104  0.78704625  0.12281921    -0.02600
Br571      Br  0.61161686  0.77681784  0.06152916    -0.01100
Br572      Br  0.57237889  0.86834024  0.13890427    -0.01200
Br573      Br  0.78996410  0.78433429  0.21897720    -0.01100
Br574      Br  0.69490723  0.78478229  0.30389006    -0.01100
C575        C  0.36017183  0.76382165  0.11520443    -0.02300
C576        C  0.30705144  0.75212888  0.13430005     0.07400
C577        C  0.30213568  0.76889326  0.19016991    -0.02400
C578        C  0.34524819  0.78638022  0.22224096    -0.02400
C579        C  0.39659643  0.78346057  0.20382193     0.07600
C580        C  0.40367767  0.77137041  0.15027533    -0.02600
Br581      Br  0.47475174  0.76961341  0.12474847    -0.01100
Br582      Br  0.37795882  0.79226659  0.04657517    -0.01200
Br583      Br  0.33523775  0.81232859  0.29438947    -0.01100
Br584      Br  0.23870711  0.77027567  0.22954568    -0.01100
C585        C  0.80929132  0.63503364  0.50910994    -0.02300
C586        C  0.79792148  0.63578229  0.45537132     0.07400
C587        C  0.76708149  0.67624722  0.43685456    -0.02400
C588        C  0.73380132  0.70397264  0.47157994    -0.02400
C589        C  0.74410137  0.70922524  0.52901151     0.07600
C590        C  0.78127016  0.66803777  0.54584153    -0.02600
Br591      Br  0.79145891  0.64146488  0.61575212    -0.01100
Br592      Br  0.86743042  0.59050324  0.53005119    -0.01200
Br593      Br  0.66637374  0.70524682  0.43552957    -0.01100
Br594      Br  0.76386090  0.68540049  0.36100171    -0.01100
C595        C  0.78520730  0.37800803  0.56882209    -0.02300
C596        C  0.77956125  0.32161033  0.55303373     0.07400
C597        C  0.80137972  0.31338849  0.49946239    -0.02400
C598        C  0.82809831  0.35437305  0.47155952    -0.02400
C599        C  0.81513929  0.40672521  0.48048500     0.07600
C600        C  0.79411249  0.41868549  0.53035281    -0.02600
Br601      Br  0.77654191  0.49156814  0.54509071    -0.01100
Br602      Br  0.77300431  0.40704957  0.63955466    -0.01200
Br603      Br  0.88470533  0.34085557  0.42204216    -0.01100
Br604      Br  0.79691947  0.25471199  0.45195212    -0.01100
C605        C  0.79869510  0.33656517  0.25878353    -0.02300
C606        C  0.80680713  0.38915601  0.24411926     0.07400
C607        C  0.81438208  0.39893365  0.18975141    -0.02400
C608        C  0.80113752  0.35952049  0.15005327    -0.02400
C609        C  0.78002966  0.30772881  0.16535062     0.07600
C610        C  0.79185301  0.29575775  0.22032789    -0.02600
Br611      Br  0.79581508  0.22547702  0.24894500    -0.01100
Br612      Br  0.78943169  0.32154561  0.33262570    -0.01200
Br613      Br  0.81664134  0.38179816  0.07718980    -0.01100
Br614      Br  0.84013344  0.46841024  0.17038407    -0.01100
C615        C  0.81340666  0.65536396  0.22042518    -0.02300
C616        C  0.78304863  0.61016607  0.23093468     0.07400
C617        C  0.74788986  0.59386365  0.19138614    -0.02400
C618        C  0.74649894  0.61937415  0.14143933    -0.02400
C619        C  0.76737816  0.67325093  0.13331359     0.07600
C620        C  0.81025580  0.68159333  0.17026186    -0.02600
Br621      Br  0.88156211  0.68169221  0.14762684    -0.01100
Br622      Br  0.86507422  0.67826741  0.27259302    -0.01200
Br623      Br  0.72923271  0.56720430  0.08699857    -0.01100
Br624      Br  0.69879528  0.53640939  0.20500258    -0.01100
C625        C  0.65406246  0.61669225  0.63443164    -0.02300
C626        C  0.60686042  0.62937905  0.65762122     0.07400
C627        C  0.59457784  0.68321904  0.66255615    -0.02400
C628        C  0.62604166  0.72325924  0.63711146    -0.02400
C629        C  0.67054381  0.70871410  0.60256428     0.07600
C630        C  0.67480824  0.65129450  0.59681384    -0.02600
Br631      Br  0.67404982  0.61230022  0.53009672    -0.01100
Br632      Br  0.68058290  0.54550710  0.64192985    -0.01200
Br633      Br  0.58887553  0.78992989  0.63666913    -0.01100
Br634      Br  0.53210614  0.69966854  0.70289795    -0.01100
C635        C  0.33469604  0.64979122  0.55997421    -0.02300
C636        C  0.31965075  0.69895062  0.58848856     0.07400
C637        C  0.34341677  0.70095674  0.64169552    -0.02400
C638        C  0.36614985  0.65505798  0.66559374    -0.02400
C639        C  0.37471926  0.60922173  0.63591554     0.07600
C640        C  0.35156132  0.60461947  0.58665878    -0.02600
Br641      Br  0.34584927  0.53412376  0.55516366    -0.01100
Br642      Br  0.33754417  0.63757155  0.48341090    -0.01200
Br643      Br  0.38984327  0.65420988  0.73878486    -0.01100
Br644      Br  0.37740961  0.76149598  0.67476323    -0.01100
C645        C  0.35668823  0.37614989  0.65516219    -0.02300
C646        C  0.39239409  0.39291009  0.61649139     0.07400
C647        C  0.38926477  0.36828751  0.56642530    -0.02400
C648        C  0.34945074  0.33022004  0.55428655    -0.02400
C649        C  0.31388188  0.30749091  0.59459737     0.07600
C650        C  0.32195438  0.33224723  0.64576281    -0.02600
Br651      Br  0.28724387  0.31051135  0.70573112    -0.01100
Br652      Br  0.35219207  0.41722322  0.72066766    -0.01200
Br653      Br  0.35433612  0.30749952  0.48067241    -0.01100
Br654      Br  0.44343098  0.38422641  0.51410197    -0.01100
C655        C  0.63656266  0.37561666  0.67002151    -0.02300
C656        C  0.62066763  0.41000793  0.62949178     0.07400
C657        C  0.64416950  0.40433321  0.57955084    -0.02400
C658        C  0.67589604  0.36034615  0.56738333    -0.02400
C659        C  0.69643035  0.32438807  0.60823747     0.07600
C660        C  0.66903026  0.33073706  0.65897213    -0.02600
Br661      Br  0.65280280  0.27685854  0.71082023    -0.01100
Br662      Br  0.61308693  0.38991832  0.74237899    -0.01200
Br663      Br  0.68558997  0.35129324  0.49030313    -0.01100
Br664      Br  0.63782585  0.46063856  0.52717080    -0.01100
loop_ 
_geom_bond_atom_site_label_1 
_geom_bond_atom_site_label_2 
_geom_bond_distance 
_geom_bond_site_symmetry_2 
_ccdc_geom_bond_type 
O1            V9   1.932       .  S
O1           C11   1.270       .  A
O2            V9   1.932       .  S
O2           C12   1.273       .  A
O3            V9   1.924       .  S
O3           C13   1.269       .  A
O4            V9   1.928       .  S
O4           C14   1.269       .  A
O5           V10   1.868       .  S
O5           C14   1.261       .  A
O6           V10   1.882       .  S
O6           C13   1.262       .  A
O7           V10   1.899       .  S
O7           C12   1.264       .  A
O8           V10   1.896       .  S
O8           C11   1.266       .  A
V9           V10   2.067       .  T
C11         C626   1.494       .  S
C12         C646   1.521       .  S
C13         C656   1.510       .  S
C14         C639   1.483       .  S
O15          V23   1.937       .  S
O15          C25   1.275       .  A
O16          V23   1.945       .  S
O16          C26   1.276       .  A
O17          V23   1.929       .  S
O17          C27   1.269       .  A
O18          V23   1.921       .  S
O18          C28   1.265       .  A
O19          V24   1.905       .  S
O19          C28   1.268       .  A
O20          V24   1.929       .  S
O20          C27   1.272       .  A
O21          V24   1.907       .  S
O21          C26   1.264       .  A
O22          V24   1.899       .  S
O22          C25   1.262       .  A
V23          V24   2.082       .  T
C25         C616   1.514       .  S
C26         C599   1.513       .  S
C27         C606   1.517       .  S
C28         C586   1.493       .  S
O29          V37   1.932       .  S
O29          C39   1.274       .  A
O30          V37   1.926       .  S
O30          C40   1.270       .  A
O31          V37   1.928       .  S
O31          C41   1.268       .  A
O32          V37   1.932       .  S
O32          C42   1.272       .  A
O33          V38   1.921       .  S
O33          C42   1.268       .  A
O34          V38   1.914       .  S
O34          C41   1.270       .  A
O35          V38   1.877       .  S
O35          C40   1.258       .  A
O36          V38   1.893       .  S
O36          C39   1.261       .  A
V37          V38   2.075       .  T
C39         C566   1.497       .  S
C40         C556   1.503       .  S
C41         C549   1.503       .  S
C42         C579   1.515       .  S
O43          V51   1.883       .  S
O43          C53   1.260       .  A
O44          V51   1.890       .  S
O44          C54   1.262       .  A
O45          V51   1.886       .  S
O45          C55   1.260       .  A
O46          V51   1.889       .  S
O46          C56   1.263       .  A
O47          V52   1.898       .  S
O47          C56   1.261       .  A
O48          V52   1.891       .  S
O48          C55   1.262       .  A
O49          V52   1.915       .  S
O49          C54   1.268       .  A
O50          V52   1.914       .  S
O50          C53   1.269       .  A
V51          V52   2.086       .  T
C53         C526   1.500       .  S
C54         C516   1.483       .  S
C55         C536   1.460       .  S
C56         C506   1.465       .  S
O57          V65   1.895       .  S
O57          C67   1.266       .  A
O58          V65   1.908       .  S
O58          C68   1.267       .  A
O59          V65   1.885       .  S
O59          C69   1.260       .  A
O60          V65   1.889       .  S
O60          C70   1.262       .  A
O61          V66   1.925       .  S
O61          C70   1.270       .  A
O62          V66   1.918       .  S
O62          C69   1.269       .  A
O63          V66   1.916       .  S
O63          C68   1.266       .  A
O64          V66   1.908       .  S
O64          C67   1.265       .  A
V65          V66   2.083       .  T
C67         C486   1.490       .  S
C68         C466   1.492       .  S
C69         C476   1.485       .  S
C70         C499   1.493       .  S
O71          V79   1.873       .  S
O71          C81   1.261       .  A
O72          V79   1.877       .  S
O72          C82   1.258       .  A
O73          V79   1.899       .  S
O73          C83   1.264       .  A
O74          V79   1.895       .  S
O74          C84   1.261       .  A
O75          V80   1.899       .  S
O75          C84   1.266       .  A
O76          V80   1.903       .  S
O76          C83   1.265       .  A
O77          V80   1.930       .  S
O77          C82   1.273       .  A
O78          V80   1.920       .  S
O78          C81   1.269       .  A
V79          V80   2.068       .  T
C81         C439   1.489       .  S
C82         C456   1.514       .  S
C83         C429   1.475       .  S
C84         C449   1.468       .  S
C85          C86   1.825       .  S
C85         C546   1.648       .  S
C85         C589   1.674       .  S
C85         C629   1.653       .  S
C86         C396   1.661       .  S
C86         C406   1.649       .  S
C86         C416   1.667       .  S
C87          C88   1.787       .  S
C87         C479   1.674       .  S
C87         C596   1.679       .  S
C87         C659   1.666       .  S
C88         C366   1.632       .  S
C88         C376   1.681       .  S
C88         C389   1.671       .  S
C89          C90   1.803       .  S
C89         C509   1.634       .  S
C89         C559   1.677       .  S
C89         C636   1.668       .  S
C90         C336   1.675       .  S
C90         C346   1.630       .  S
C90         C359   1.666       .  S
C91          C92   1.815       .  S
C91         C436   1.638       .  S
C91         C569   1.661       .  S
C91         C619   1.702       .  S
C92         C309   1.671       .  S
C92         C316   1.678       .  S
C92         C326   1.664       .  S
C93          C94   1.834       .  S
C93         C469   1.663       .  S
C93         C519   1.638       .  S
C93         C649   1.677       .  S
C94         C279   1.631       .  S
C94         C289   1.653       .  S
C94         C296   1.674       .  S
C95          C96   1.825       .  S
C95         C446   1.667       .  S
C95         C529   1.628       .  S
C95         C576   1.694       .  S
C96         C249   1.693       .  S
C96         C259   1.643       .  S
C96         C269   1.679       .  S
C97          C98   1.825       .  S
C97         C426   1.677       .  S
C97         C489   1.670       .  S
C97         C609   1.647       .  S
C98         C219   1.622       .  S
C98         C229   1.659       .  S
C98         C236   1.672       .  S
C99         C100   1.766       .  S
C99         C459   1.648       .  S
C99         C496   1.665       .  S
C99         C539   1.642       .  S
C100        C189   1.671       .  S
C100        C199   1.651       .  S
C100        C209   1.639       .  S
O101        V109   1.857   1_545  S
O101        C111   1.252       .  A
O102        V109   1.862       .  S
O102        C112   1.255       .  A
O103        V109   1.897       .  S
O103        C113   1.264       .  A
O104        V109   1.887   1_545  S
O104        C114   1.261       .  A
O105        V110   1.900   1_545  S
O105        C114   1.263       .  A
O106        V110   1.912       .  S
O106        C113   1.264       .  A
O107        V110   1.943       .  S
O107        C112   1.275       .  A
O108        V110   1.935   1_545  S
O108        C111   1.272       .  A
V109        V110   2.077       .  T
C111        C196   1.500       .  S
C112        C349   1.511       .  S
C113        C256   1.479       .  S
C114        C286   1.495       .  S
O115        V123   1.944       .  S
O115        C125   1.274       .  A
O116        V123   1.949   1_655  S
O116        C126   1.275       .  A
O117        V123   1.907       .  S
O117        C127   1.266       .  A
O118        V123   1.922   1_655  S
O118        C128   1.268       .  A
O119        V124   1.928   1_655  S
O119        C128   1.272       .  A
O120        V124   1.911       .  S
O120        C127   1.266       .  A
O121        V124   1.896   1_655  S
O121        C126   1.265       .  A
O122        V124   1.884       .  S
O122        C125   1.259       .  A
V123        V124   2.076       .  T
C125        C299   1.515       .  S
C126        C226   1.509       .  S
C127        C186   1.495       .  S
C128        C379   1.511       .  S
O129        V137   1.931   1_445  S
O129        C139   1.273       .  A
O130        V137   1.944       .  S
O130        C140   1.276       .  A
O131        V137   1.917   1_455  S
O131        C141   1.266       .  A
O132        V137   1.921   1_545  S
O132        C142   1.266       .  A
O133        V138   1.905   1_545  S
O133        C142   1.269       .  A
O134        V138   1.900   1_455  S
O134        C141   1.268       .  A
O135        V138   1.884       .  S
O135        C140   1.259       .  A
O136        V138   1.874   1_445  S
O136        C139   1.255       .  A
V137        V138   2.074       .  T
C139        C206   1.502       .  S
C140        C329   1.498       .  S
C141        C266   1.511       .  S
C142        C239   1.493       .  S
O143        V151   1.866       .  S
O143        C153   1.257       .  A
O144        V151   1.867   1_565  S
O144        C154   1.257       .  A
O145        V151   1.908   1_565  S
O145        C155   1.267       .  A
O146        V151   1.910       .  S
O146        C156   1.270       .  A
O147        V152   1.908       .  S
O147        C156   1.261       .  A
O148        V152   1.920   1_565  S
O148        C155   1.267       .  A
O149        V152   1.943   1_565  S
O149        C154   1.275       .  A
O150        V152   1.936       .  S
O150        C153   1.274       .  A
V151        V152   2.080       .  T
C153        C369   1.493       .  S
C154        C319   1.506       .  S
C155        C409   1.495       .  S
C156        C216   1.484       .  S
O157        V165   1.904   1_445  S
O157        C167   1.267       .  A
O158        V165   1.909       .  S
O158        C168   1.268       .  A
O159        V165   1.882   1_455  S
O159        C169   1.256       .  A
O160        V165   1.869   1_545  S
O160        C170   1.256       .  A
O161        V166   1.933       .  S
O161        C170   1.272       .  A
O162        V166   1.932   1_465  S
O162        C169   1.275       .  A
O163        V166   1.923   1_565  S
O163        C168   1.267       .  A
O164        V166   1.900   1_455  S
O164        C167   1.261       .  A
V165        V166   2.079   1_565  T
C167        C276   1.506       .  S
C168        C419   1.494       .  S
C169        C356   1.486       .  S
C170        C386   1.506       .  S
O171        V179   1.893       .  S
O171        C181   1.262       .  A
O172        V179   1.885   1_655  S
O172        C182   1.262       .  A
O173        V179   1.881       .  S
O173        C183   1.260       .  A
O174        V179   1.884   1_655  S
O174        C184   1.262       .  A
O175        V180   1.927       .  S
O175        C184   1.271       .  A
O176        V180   1.920   1_455  S
O176        C183   1.270       .  A
O177        V180   1.898       .  S
O177        C182   1.263       .  A
O178        V180   1.908   1_455  S
O178        C181   1.266       .  A
V179        V180   2.077   1_455  T
C181        C339   1.475       .  S
C182        C306   1.474       .  S
C183        C246   1.489       .  S
C184        C399   1.494       .  S
C185        C186   1.406       .  A
C185        C190   1.406   1_556  A
C185       Br192   1.906       .  S
C186        C187   1.407   1_556  A
C187        C188   1.439       .  A
C187       Br194   1.946       .  S
C188        C189   1.490       .  A
C188       Br193   1.951       .  S
C189        C190   1.430       .  A
C190       Br191   1.962   1_554  S
C195        C196   1.419   1_554  A
C195        C200   1.432       .  A
C195       Br202   1.936   1_554  S
C196        C197   1.421       .  A
C197        C198   1.381   1_556  A
C197       Br204   1.942       .  S
C198        C199   1.420       .  A
C198       Br203   1.935       .  S
C199        C200   1.443       .  A
C200       Br201   1.931       .  S
C205        C206   1.407       .  A
C205        C210   1.427       .  A
C205       Br212   1.940       .  S
C206        C207   1.411       .  A
C207        C208   1.399       .  A
C207       Br214   1.947       .  S
C208        C209   1.459       .  A
C208       Br213   1.919       .  S
C209        C210   1.464       .  A
C210       Br211   1.911       .  S
C215        C216   1.394       .  A
C215        C220   1.432   1_556  A
C215       Br222   1.937       .  S
C216        C217   1.375   1_556  A
C217        C218   1.395       .  A
C217       Br224   1.929       .  S
C218        C219   1.465       .  A
C218       Br223   1.942       .  S
C219        C220   1.469       .  A
C220       Br221   1.947   1_554  S
C225        C226   1.408   1_554  A
C225        C230   1.447       .  A
C225       Br232   1.919       .  S
C226        C227   1.381       .  A
C227        C228   1.396       .  A
C227       Br234   1.920       .  S
C228        C229   1.456   1_556  A
C228       Br233   1.948       .  S
C229        C230   1.478       .  A
C230       Br231   1.954       .  S
C235        C236   1.483       .  A
C235        C240   1.438       .  A
C235       Br242   1.897       .  S
C236        C237   1.464       .  A
C237        C238   1.393       .  A
C237       Br244   1.947       .  S
C238        C239   1.369       .  A
C238       Br243   1.915       .  S
C239        C240   1.382       .  A
C240       Br241   1.936       .  S
C245        C246   1.400       .  A
C245        C250   1.444       .  A
C245       Br252   1.944       .  S
C246        C247   1.390       .  A
C247        C248   1.396   1_556  A
C247       Br254   1.951       .  S
C248        C249   1.465       .  A
C248       Br253   1.932       .  S
C249        C250   1.476   1_554  A
C250       Br251   1.895       .  S
C255        C256   1.388   1_554  A
C255        C260   1.423       .  A
C255       Br262   1.938       .  S
C256        C257   1.379       .  A
C257        C258   1.415       .  A
C257       Br264   1.946       .  S
C258        C259   1.469   1_556  A
C258       Br263   1.923       .  S
C259        C260   1.484       .  A
C260       Br261   1.949       .  S
C265        C266   1.392       .  A
C265        C270   1.413       .  A
C265       Br272   1.955       .  S
C266        C267   1.401       .  A
C267        C268   1.429       .  A
C267       Br274   1.944       .  S
C268        C269   1.468       .  A
C268       Br273   1.934       .  S
C269        C270   1.488       .  A
C270       Br271   1.958   1_554  S
C275        C276   1.404       .  A
C275        C280   1.398       .  A
C275       Br282   1.945       .  S
C276        C277   1.422       .  A
C277        C278   1.429       .  A
C277       Br284   1.936       .  S
C278        C279   1.462       .  A
C278       Br283   1.945       .  S
C279        C280   1.461       .  A
C280       Br281   1.922       .  S
C285        C286   1.407       .  A
C285        C290   1.400       .  A
C285       Br292   1.937       .  S
C286        C287   1.410       .  A
C287        C288   1.420       .  A
C287       Br294   1.943       .  S
C288        C289   1.474       .  A
C288       Br293   1.945       .  S
C289        C290   1.449       .  A
C290       Br291   1.918       .  S
C295        C296   1.421       .  A
C295        C300   1.426       .  A
C295       Br302   1.930       .  S
C296        C297   1.459       .  A
C297        C298   1.406       .  A
C297       Br304   1.941       .  S
C298        C299   1.419       .  A
C298       Br303   1.957       .  S
C299        C300   1.425       .  A
C300       Br301   1.922       .  S
C305        C306   1.390       .  A
C305        C310   1.382       .  A
C305       Br312   1.943       .  S
C306        C307   1.412       .  A
C307        C308   1.442   1_556  A
C307       Br314   1.941       .  S
C308        C309   1.465       .  A
C308       Br313   1.907       .  S
C309        C310   1.451   1_554  A
C310       Br311   1.928       .  S
C315        C316   1.468   1_556  A
C315        C320   1.439       .  A
C315       Br322   1.924       .  S
C316        C317   1.479       .  A
C317        C318   1.406   1_554  A
C317       Br324   1.954       .  S
C318        C319   1.397       .  A
C318       Br323   1.958       .  S
C319        C320   1.399       .  A
C320       Br321   1.945       .  S
C325        C326   1.465       .  A
C325        C330   1.423       .  A
C325       Br332   1.933       .  S
C326        C327   1.487       .  A
C327        C328   1.428       .  A
C327       Br334   1.953       .  S
C328        C329   1.391       .  A
C328       Br333   1.937       .  S
C329        C330   1.387       .  A
C330       Br331   1.939       .  S
C335        C336   1.480       .  A
C335        C340   1.423       .  A
C335       Br342   1.943       .  S
C336        C337   1.474       .  A
C337        C338   1.416       .  A
C337       Br344   1.909       .  S
C338        C339   1.380       .  A
C338       Br343   1.946       .  S
C339        C340   1.382       .  A
C340       Br341   1.944       .  S
C345        C346   1.457       .  A
C345        C350   1.442       .  A
C345       Br352   1.938       .  S
C346        C347   1.451       .  A
C347        C348   1.397       .  A
C347       Br354   1.946       .  S
C348        C349   1.405       .  A
C348       Br353   1.949       .  S
C349        C350   1.412       .  A
C350       Br351   1.940       .  S
C355        C356   1.388       .  A
C355        C360   1.410       .  A
C355       Br362   1.915       .  S
C356        C357   1.395       .  A
C357        C358   1.428       .  A
C357       Br364   1.934       .  S
C358        C359   1.482       .  A
C358       Br363   1.930       .  S
C359        C360   1.439       .  A
C360       Br361   1.923       .  S
C365        C366   1.477       .  A
C365        C370   1.430       .  A
C365       Br372   1.916       .  S
C366        C367   1.448       .  A
C367        C368   1.405       .  A
C367       Br374   1.940       .  S
C368        C369   1.394       .  A
C368       Br373   1.917       .  S
C369        C370   1.384       .  A
C370       Br371   1.944       .  S
C375        C376   1.478       .  A
C375        C380   1.440       .  A
C375       Br382   1.893       .  S
C376        C377   1.433       .  A
C377        C378   1.414       .  A
C377       Br384   1.949       .  S
C378        C379   1.403       .  A
C378       Br383   1.897       .  S
C379        C380   1.401       .  A
C380       Br381   1.938       .  S
C385        C386   1.394       .  A
C385        C390   1.393       .  A
C385       Br392   1.947       .  S
C386        C387   1.403       .  A
C387        C388   1.438       .  A
C387       Br394   1.941       .  S
C388        C389   1.478       .  A
C388       Br393   1.913       .  S
C389        C390   1.473       .  A
C390       Br391   1.945       .  S
C395        C396   1.454       .  A
C395        C400   1.441       .  A
C395       Br402   1.916       .  S
C396        C397   1.453       .  A
C397        C398   1.394       .  A
C397       Br404   1.918       .  S
C398        C399   1.391       .  A
C398       Br403   1.941       .  S
C399        C400   1.410       .  A
C400       Br401   1.938       .  S
C405        C406   1.441       .  A
C405        C410   1.389       .  A
C405       Br412   1.940       .  S
C406        C407   1.456       .  A
C407        C408   1.447       .  A
C407       Br414   1.929       .  S
C408        C409   1.419       .  A
C408       Br413   1.927       .  S
C409        C410   1.400       .  A
C410       Br411   1.920       .  S
C415        C416   1.488       .  A
C415        C420   1.426       .  A
C415       Br422   1.939       .  S
C416        C417   1.479       .  A
C417        C418   1.415       .  A
C417       Br424   1.924       .  S
C418        C419   1.373       .  A
C418       Br423   1.930       .  S
C419        C420   1.379       .  A
C420       Br421   1.948       .  S
C425        C426   1.470       .  A
C425        C430   1.414       .  A
C425       Br432   1.959       .  S
C426        C427   1.464       .  A
C427        C428   1.401       .  A
C427       Br434   1.940       .  S
C428        C429   1.409       .  A
C428       Br433   1.918       .  S
C429        C430   1.412       .  A
C430       Br431   1.931   1_554  S
C435        C436   1.472       .  A
C435        C440   1.398       .  A
C435       Br442   1.952       .  S
C436        C437   1.458       .  A
C437        C438   1.430       .  A
C437       Br444   1.908   1_554  S
C438        C439   1.394       .  A
C438       Br443   1.945   1_554  S
C439        C440   1.390       .  A
C440       Br441   1.952       .  S
C445        C446   1.487       .  A
C445        C450   1.417       .  A
C445       Br452   1.931       .  S
C446        C447   1.442       .  A
C447        C448   1.414       .  A
C447       Br454   1.919   1_554  S
C448        C449   1.391       .  A
C448       Br453   1.935       .  S
C449        C450   1.382       .  A
C450       Br451   1.949       .  S
C455        C456   1.410       .  A
C455        C460   1.433       .  A
C455       Br462   1.945   1_554  S
C456        C457   1.411       .  A
C457        C458   1.410       .  A
C457       Br464   1.962       .  S
C458        C459   1.470       .  A
C458       Br463   1.956       .  S
C459        C460   1.457       .  A
C460       Br461   1.911       .  S
C465        C466   1.385       .  A
C465        C470   1.415       .  A
C465       Br472   1.913       .  S
C466        C467   1.390       .  A
C467        C468   1.429       .  A
C467       Br474   1.949       .  S
C468        C469   1.465       .  A
C468       Br473   1.929       .  S
C469        C470   1.474       .  A
C470       Br471   1.957       .  S
C475        C476   1.383       .  A
C475        C480   1.377       .  A
C475       Br482   1.936       .  S
C476        C477   1.412       .  A
C477        C478   1.445       .  A
C477       Br484   1.933       .  S
C478        C479   1.464       .  A
C478       Br483   1.949       .  S
C479        C480   1.452       .  A
C480       Br481   1.906       .  S
C485        C486   1.384       .  A
C485        C490   1.402       .  A
C485       Br492   1.943       .  S
C486        C487   1.391       .  A
C487        C488   1.433       .  A
C487       Br494   1.945       .  S
C488        C489   1.468       .  A
C488       Br493   1.914       .  S
C489        C490   1.460       .  A
C490       Br491   1.917       .  S
C495        C496   1.474       .  A
C495        C500   1.423       .  A
C495       Br502   1.928       .  S
C496        C497   1.485       .  A
C497        C498   1.419       .  A
C497       Br504   1.935       .  S
C498        C499   1.374       .  A
C498       Br503   1.938       .  S
C499        C500   1.385       .  A
C500       Br501   1.914       .  S
C505        C506   1.381       .  A
C505        C510   1.414       .  A
C505       Br512   1.932       .  S
C506        C507   1.382       .  A
C507        C508   1.409       .  A
C507       Br514   1.945       .  S
C508        C509   1.463       .  A
C508       Br513   1.926       .  S
C509        C510   1.487       .  A
C510       Br511   1.957       .  S
C515        C516   1.389       .  A
C515        C520   1.418       .  A
C515       Br522   1.924       .  S
C516        C517   1.378       .  A
C517        C518   1.415       .  A
C517       Br524   1.930       .  S
C518        C519   1.475       .  A
C518       Br523   1.936       .  S
C519        C520   1.461       .  A
C520       Br521   1.920       .  S
C525        C526   1.396       .  A
C525        C530   1.395       .  A
C525       Br532   1.945       .  S
C526        C527   1.406       .  A
C527        C528   1.434       .  A
C527       Br534   1.945       .  S
C528        C529   1.455       .  A
C528       Br533   1.931       .  S
C529        C530   1.458       .  A
C530       Br531   1.948       .  S
C535        C536   1.388       .  A
C535        C540   1.403       .  A
C535       Br542   1.933       .  S
C536        C537   1.393       .  A
C537        C538   1.414       .  A
C537       Br544   1.950       .  S
C538        C539   1.455       .  A
C538       Br543   1.945       .  S
C539        C540   1.466       .  A
C540       Br541   1.945       .  S
C545        C546   1.483       .  A
C545        C550   1.436       .  A
C545       Br552   1.925       .  S
C546        C547   1.466       .  A
C547        C548   1.401       .  A
C547       Br554   1.951       .  S
C548        C549   1.375       .  A
C548       Br553   1.913       .  S
C549        C550   1.389       .  A
C550       Br551   1.935       .  S
C555        C556   1.407       .  A
C555        C560   1.438       .  A
C555       Br562   1.944       .  S
C556        C557   1.402       .  A
C557        C558   1.401       .  A
C557       Br564   1.957       .  S
C558        C559   1.463       .  A
C558       Br563   1.938       .  S
C559        C560   1.477       .  A
C560       Br561   1.904       .  S
C565        C566   1.377       .  A
C565        C570   1.419       .  A
C565       Br572   1.943       .  S
C566        C567   1.397       .  A
C567        C568   1.428       .  A
C567       Br574   1.921       .  S
C568        C569   1.464       .  A
C568       Br573   1.925       .  S
C569        C570   1.481       .  A
C570       Br571   1.909       .  S
C575        C576   1.471       .  A
C575        C580   1.431       .  A
C575       Br582   1.931       .  S
C576        C577   1.472       .  A
C577        C578   1.432       .  A
C577       Br584   1.902       .  S
C578        C579   1.395       .  A
C578       Br583   1.944       .  S
C579        C580   1.393       .  A
C580       Br581   1.929       .  S
C585        C586   1.385       .  A
C585        C590   1.433       .  A
C585       Br592   1.941       .  S
C586        C587   1.375       .  A
C587        C588   1.405       .  A
C587       Br594   1.928       .  S
C588        C589   1.475       .  A
C588       Br593   1.948       .  S
C589        C590   1.474       .  A
C590       Br591   1.907       .  S
C595        C596   1.479       .  A
C595        C600   1.434       .  A
C595       Br602   1.946       .  S
C596        C597   1.474       .  A
C597        C598   1.426       .  A
C597       Br604   1.897       .  S
C598        C599   1.378       .  A
C598       Br603   1.941       .  S
C599        C600   1.398       .  A
C600       Br601   1.925       .  S
C605        C606   1.393       .  A
C605        C610   1.417       .  A
C605       Br612   1.916       .  S
C606        C607   1.407       .  A
C607        C608   1.443       .  A
C607       Br614   1.934       .  S
C608        C609   1.465       .  A
C608       Br613   1.964       .  S
C609        C610   1.451       .  A
C610       Br611   1.920       .  S
C615        C616   1.403       .  A
C615        C620   1.433       .  A
C615       Br622   1.945       .  S
C616        C617   1.399       .  A
C617        C618   1.418       .  A
C617       Br624   1.945       .  S
C618        C619   1.473       .  A
C618       Br623   1.941       .  S
C619        C620   1.451       .  A
C620       Br621   1.911       .  S
C625        C626   1.379       .  A
C625        C630   1.397       .  A
C625       Br632   1.930       .  S
C626        C627   1.398       .  A
C627        C628   1.443       .  A
C627       Br634   1.938       .  S
C628        C629   1.479       .  A
C628       Br633   1.933       .  S
C629        C630   1.457       .  A
C630       Br631   1.940       .  S
C635        C636   1.479       .  A
C635        C640   1.396       .  A
C635       Br642   1.952       .  S
C636        C637   1.472       .  A
C637        C638   1.433       .  A
C637       Br644   1.935       .  S
C638        C639   1.389       .  A
C638       Br643   1.940       .  S
C639        C640   1.378       .  A
C640       Br641   1.944       .  S
C645        C646   1.402       .  A
C645        C650   1.434       .  A
C645       Br652   1.944       .  S
C646        C647   1.403       .  A
C647        C648   1.427       .  A
C647       Br654   1.956       .  S
C648        C649   1.481       .  A
C648       Br653   1.940       .  S
C649        C650   1.442       .  A
C650       Br651   1.839       .  S
C655        C656   1.405       .  A
C655        C660   1.431       .  A
C655       Br662   1.951       .  S
C656        C657   1.401       .  A
C657        C658   1.408       .  A
C657       Br664   1.952       .  S
C658        C659   1.474       .  A
C658       Br663   1.969       .  S
C659        C660   1.466       .  A
C660       Br661   1.935       .  S
