geometry optimzed in LAMMPS
_audit_creation_date              2020-11-30 
_audit_creation_method            'lammps2cif' 
_symmetry_space_group_name_H-M    'P1' 
_symmetry_Int_Tables_number       1 
_symmetry_cell_setting            triclinic 
loop_ 
_symmetry_equiv_pos_as_xyz 
  x,y,z 
_cell_length_a                    42.79462594003378 
_cell_length_b                    37.20493459299007 
_cell_length_c                    37.25443232635082 
_cell_angle_alpha                 86.82024748401794 
_cell_angle_beta                  88.62987816401515 
_cell_angle_gamma                 91.76123276429725 
loop_ 
_atom_site_label 
_atom_site_type_symbol 
_atom_site_fract_x 
_atom_site_fract_y 
_atom_site_fract_z 
_atom_site_charge 
C1          C  0.37099221  0.37904920  0.37257901    -0.01920
C2          C  0.10631995  0.11897168  0.13288274    -0.01920
N3          N  0.43733336  0.05515498  0.51728176    -0.05550
N4          N  0.42426525  0.08650117  0.51187842    -0.57670
N5          N  0.43838177  0.47958129  0.06981344    -0.05230
N6          N  0.42023647  0.46250401  0.09465937    -0.59800
N7          N  0.45394006  0.00659169  0.08301000    -0.04830
N8          N  0.44613474  0.00868036  0.11752305    -0.57650
N9          N  0.42034758  0.02907894  0.50440735    -0.04510
N10         N  0.39476629  0.04248238  0.48998088    -0.60150
C11         C  0.39795849  0.07848887  0.49461253     0.96620
C12         C  0.42560890  0.98034246  0.12443082     0.96400
N13         N  0.48149115  0.40874652  0.00237779    -0.05740
N14         N  0.49362577  0.37969869  0.01779991    -0.58250
N15         N  0.43728567  0.46630802  0.45502281    -0.03860
N16         N  0.41223936  0.46497478  0.43551190    -0.59500
N17         N  0.46195211  0.45693281  0.43650063    -0.05770
N18         N  0.45412098  0.44904356  0.40391845    -0.58520
N19         N  0.45701338  0.41843011  0.02128388    -0.03500
N20         N  0.45231317  0.39602550  0.04995273    -0.59590
Mn21       Mn  0.43722815  0.47262487  0.01226882     1.18440
C22         C  0.47505154  0.37177269  0.04707373     0.98710
C23         C  0.42318652  0.45466628  0.40368757     0.99370
N24         N  0.52429132  0.03370990  0.07024995    -0.05790
N25         N  0.53152421  0.04142539  0.10305119    -0.62100
N26         N  0.02950324  0.07224149  0.48515153    -0.04590
N27         N  0.03356561  0.09415520  0.45597611    -0.62770
N28         N  0.50504449  0.08187174  0.50415374    -0.05290
N29         N  0.49237367  0.11037901  0.48832860    -0.62360
N30         N  0.04925279  0.02454879  0.05210617    -0.04190
N31         N  0.07395329  0.02604382  0.07229434    -0.63050
Mn32       Mn  0.48058529  0.04514764  0.04474706     1.10660
C33         C  0.06246961  0.03615014  0.10409277     0.99930
C34         C  0.51049954  0.11806662  0.45867277     1.00000
N35         N  0.03258158  0.48419439  0.42345862    -0.05300
N36         N  0.03995974  0.48225172  0.38881027    -0.60680
N37         N  0.06642971  0.46133167  0.00216908    -0.04620
N38         N  0.09218110  0.44767776  0.01599430    -0.57400
N39         N  0.04927490  0.43543203  0.98918191    -0.05930
N40         N  0.06234545  0.40402671  0.99399723    -0.60240
N41         N  0.04851547  0.51094842  0.43666004    -0.04920
N42         N  0.06655206  0.02798650  0.41163552    -0.57430
Mn43       Mn  0.00592219  0.44556208  0.46173031     1.20190
Mn44       Mn  0.04960959  0.01804238  0.49449560     1.10090
Cl45       Cl  0.49333552  0.49535165  0.50328040    -0.85400
C46         C  0.06066107  0.51038283  0.38172829     0.96930
C47         C  0.08886083  0.41172653  0.01096214     0.96730
N48         N  0.29549822  0.18067670  0.51651265    -0.05550
N49         N  0.30764631  0.14919468  0.51147182    -0.57670
N50         N  0.29517470  0.25123955  0.06821142    -0.05230
N51         N  0.31353078  0.26432300  0.09267647    -0.59800
N52         N  0.27791316  0.22372027  0.08193930    -0.04830
N53         N  0.28483383  0.21737584  0.11634941    -0.57650
N54         N  0.31400874  0.20724523  0.50320873    -0.04510
N55         N  0.33967046  0.19398662  0.48892833    -0.60150
C56         C  0.33497040  0.15765115  0.49403803     0.96620
C57         C  0.30670264  0.24354375  0.12279935     0.96400
N58         N  0.25801650  0.33118861  0.99774430    -0.05740
N59         N  0.24684338  0.36042700  0.01130880    -0.58250
N60         N  0.30310104  0.27693968  0.45216759    -0.03860
N61         N  0.32967434  0.28237068  0.43385482    -0.59500
N62         N  0.27956483  0.28834285  0.43292524    -0.05770
N63         N  0.28980208  0.30137720  0.40109014    -0.58520
N64         N  0.28093635  0.31874629  0.01745918    -0.03500
N65         N  0.28552042  0.33945913  0.04482060    -0.59590
Mn66       Mn  0.29923039  0.26417540  0.00994008     1.18440
C67         C  0.26439692  0.36563998  0.04025508     0.98710
C68         C  0.32096845  0.29712052  0.40193544     0.99370
N69         N  0.20567881  0.19997147  0.06867144    -0.05790
N70         N  0.19515385  0.18766988  0.10070212    -0.62100
N71         N  0.20429699  0.17042803  0.48379548    -0.04590
N72         N  0.19974061  0.15049576  0.45583673    -0.62770
N73         N  0.22743051  0.15771953  0.50302076    -0.05290
N74         N  0.23878730  0.12904347  0.48839363    -0.62360
N75         N  0.18248539  0.21225830  0.04944107    -0.04190
N76         N  0.15592451  0.20848464  0.06789215    -0.63050
Mn77       Mn  0.25120763  0.18989189  0.04368863     1.10660
C78         C  0.16421001  0.19368615  0.09989249     0.99930
C79         C  0.22109215  0.12446461  0.45934431     1.00000
N80         N  0.20724015  0.26510352  0.41992747    -0.05300
N81         N  0.19980558  0.27178574  0.38575365    -0.60680
N82         N  0.17149019  0.28191613  0.99888051    -0.04620
N83         N  0.14617699  0.29538650  0.01379015    -0.57400
N84         N  0.18997520  0.30835359  0.98526293    -0.05930
N85         N  0.17817128  0.33994407  0.99068587    -0.60240
N86         N  0.18994026  0.23773980  0.43382955    -0.04920
N87         N  0.17108692  0.22498858  0.40972315    -0.57430
Mn88       Mn  0.23416783  0.29873033  0.45782993     1.20190
Mn89       Mn  0.18615246  0.22498115  0.49187834     1.10090
Cl90       Cl  0.24267262  0.24438245  0.50088559    -0.85400
C91         C  0.17764394  0.24586877  0.37964658     0.96930
C92         C  0.15106400  0.33171832  0.00867452     0.96730
N93         N  0.47092694  0.30698733  0.30561070    -0.05550
N94         N  0.46713652  0.33936425  0.31718286    -0.57670
N95         N  0.46554830  0.21913906  0.33422237    -0.05230
N96         N  0.46070949  0.19100600  0.35744225    -0.59800
N97         N  0.49249668  0.23544273  0.34062462    -0.04830
N98         N  0.50624249  0.21898383  0.36798603    -0.57650
N99         N  0.44375904  0.29174480  0.29851361    -0.04510
N100        N  0.42103545  0.31363698  0.30481684    -0.60150
C101        C  0.43600611  0.34324489  0.31608865     0.96620
C102        C  0.48622841  0.19158882  0.37843037     0.96400
N103        N  0.44275080  0.17099137  0.23875758    -0.05740
N104        N  0.42461008  0.14464937  0.22748030    -0.58250
N105        N  0.41132798  0.24908163  0.23479777    -0.03860
N106        N  0.38097545  0.25461103  0.23041790    -0.59500
N107        N  0.42414617  0.24117363  0.20380928    -0.05770
N108        N  0.40336058  0.24163137  0.17820561    -0.58520
N109        N  0.43269241  0.17985102  0.27070748    -0.03500
N110        N  0.40809174  0.15948844  0.28150692    -0.59590
Mn111      Mn  0.43793993  0.23544582  0.28572138     1.18440
C112        C  0.40351199  0.13730330  0.25470674     0.98710
C113        C  0.37659503  0.25051005  0.19468427     0.99370
N114        N  0.05801587  0.24980060  0.30285640    -0.05790
N115        N  0.07925392  0.24928987  0.32798170    -0.62100
N116        N  0.04824532  0.31107335  0.23567808    -0.04590
N117        N  0.07257647  0.33143018  0.22407578    -0.62770
N118        N  0.03892278  0.31987609  0.26794857    -0.05290
N119        N  0.05750848  0.34612669  0.27869125    -0.62360
N120        N  0.07038097  0.24212389  0.27165815    -0.04190
N121        N  0.10074841  0.23647687  0.27521860    -0.63050
Mn122      Mn  0.01435759  0.27843101  0.30494738     1.10660
C123        C  0.10572199  0.24042946  0.31076884     0.99930
C124        C  0.07793387  0.35351080  0.25073143     1.00000
N125        N  0.98971517  0.25436785  0.16604311    -0.05300
N126        N  0.97648414  0.27035951  0.13804445    -0.60480
N127        N  0.03756290  0.19886957  0.21149148    -0.04620
N128        N  0.06023154  0.17610381  0.21101865    -0.57400
N129        N  0.01099759  0.18303759  0.20333686    -0.05930
N130        N  0.51537887  0.14927425  0.19609165    -0.60240
N131        N  0.01652388  0.27072307  0.17270367    -0.04920
N132        N  0.02189805  0.29836499  0.14907291    -0.57430
Mn133      Mn  0.46759254  0.21200526  0.20213769     1.20190
Mn134      Mn  0.04340702  0.25532684  0.22160859     1.10090
Cl135      Cl  0.49072110  0.24547214  0.25358626    -0.85400
C136        C  0.99679824  0.29747119  0.12753270     0.96930
C137        C  0.04624679  0.14531137  0.20134417     0.96730
N138        N  0.26902611  0.07777216  0.24186986    -0.05550
N139        N  0.29003464  0.09828172  0.25742831    -0.57670
N140        N  0.21773757  0.04611112  0.18234244    -0.05230
N141        N  0.20134012  0.05172347  0.15330344    -0.59800
N142        N  0.20419835  0.05983392  0.21032413    -0.04830
N143        N  0.17815726  0.07499330  0.20099932    -0.57650
N144        N  0.28170469  0.06428610  0.21313392    -0.04510
N145        N  0.31113627  0.07547663  0.20858910    -0.60150
C146        C  0.31596918  0.09680924  0.23599890     0.96620
C147        C  0.17685428  0.06959752  0.16560655     0.96400
N148        N  0.24057502  0.43911083  0.17784096    -0.05740
N149        N  0.23986362  0.41251211  0.15581052    -0.58250
N150        N  0.30408073  0.49061830  0.19257225    -0.03860
N151        N  0.33194559  0.50088059  0.17945041    -0.59500
N152        N  0.30439506  0.45839833  0.20876769    -0.05770
N153        N  0.33308999  0.44583803  0.20681134    -0.58520
N154        N  0.24237600  0.47049000  0.15956855    -0.03500
N155        N  0.24318247  0.46537128  0.12458895    -0.59590
Mn156      Mn  0.26110507  0.01878002  0.18608055     1.18440
C157        C  0.24091620  0.42908987  0.12272054     0.98710
C158        C  0.34995935  0.47310278  0.18883141     0.99370
N159        N  0.17769746  0.03163096  0.28791724    -0.05790
N160        N  0.14914135  0.04420943  0.29190906    -0.62100
N161        N  0.24072892  0.02122752  0.33716701    -0.04590
N162        N  0.24090460  0.02631071  0.37217350    -0.62770
N163        N  0.24079381  0.05260263  0.31895157    -0.05290
N164        N  0.24138882  0.07920991  0.34104282    -0.62360
N165        N  0.17899385  0.49993269  0.30509136    -0.04190
N166        N  0.15187887  0.48997479  0.32047517    -0.63050
Mn167      Mn  0.22276279  0.05693536  0.26423670     1.10660
C168        C  0.13329968  0.01735485  0.31180079     0.99930
C169        C  0.24200911  0.06264088  0.37412577     1.00000
N170        N  0.27909038  0.43211905  0.28394382    -0.05300
N171        N  0.30827710  0.42398110  0.28834109    -0.60680
N172        N  0.20170093  0.42649400  0.28519387    -0.04620
N173        N  0.17252920  0.41504297  0.29141461    -0.57400
N174        N  0.21313353  0.41336115  0.25565194    -0.05930
N175        N  0.19150721  0.39271926  0.24123705    -0.60240
N176        N  0.26733886  0.44609944  0.31281644    -0.04920
N177        N  0.28840852  0.44705361  0.33799769    -0.57430
Mn178      Mn  0.25895765  0.43412285  0.23197287     1.20190
Mn179      Mn  0.22268814  0.47233395  0.31113164     1.10090
Cl180      Cl  0.24121552  0.49560853  0.24831922    -0.85400
C181        C  0.31362127  0.43358725  0.32164501     0.96930
C182        C  0.16651410  0.39385766  0.26422842     0.96730
C183        C  0.37326760  0.12048001  0.24960134    -0.12710
C184        C  0.34674362  0.11016308  0.24449898    -0.14270
C185        C  0.10843521  0.37025472  0.25450908    -0.12710
C186        C  0.13531316  0.38041150  0.25769832    -0.14270
C187        C  0.25652575  0.39093264  0.06709528    -0.12710
C188        C  0.24863336  0.40998358  0.09094812    -0.14270
C189        C  0.23559595  0.08146756  0.40663694    -0.12710
C190        C  0.22867128  0.09990505  0.43148576    -0.14270
C191        C  0.13601087  0.24212556  0.32794045    -0.12710
C192        C  0.15764037  0.24489774  0.34849101    -0.14270
C193        C  0.34668216  0.24852942  0.17645027    -0.12710
C194        C  0.32585326  0.24528323  0.15479613    -0.14270
C195        C  0.37495654  0.10541709  0.48699977    -0.12710
C196        C  0.35745735  0.13048003  0.48685939    -0.14270
C197        C  0.11191213  0.38456965  0.01762548    -0.12710
C198        C  0.12908434  0.35920530  0.01685322    -0.14270
C199        C  0.10257533  0.51933747  0.32857098    -0.12710
C200        C  0.08056169  0.51572180  0.34974975    -0.14270
C201        C  0.40482226  0.47536537  0.15559656    -0.12710
C202        C  0.38166570  0.47161958  0.17495521    -0.14270
C203        C  0.99029409  0.32409187  0.09909434    -0.12710
C204        C  0.48288043  0.34560086  0.07539056    -0.14270
C205        C  0.50177874  0.14346401  0.42996267    -0.12710
C206        C  0.49343839  0.16464741  0.40638512    -0.14270
C207        C  0.12960315  0.10159252  0.15704631    -0.15870
C208        C  0.15293993  0.08360236  0.14287000    -0.31040
H209        H  0.12768236  0.10454388  0.18589371     0.13160
H210        H  0.15489123  0.08042759  0.11408806     0.13730
C211        C  0.08196708  0.13723843  0.15388094    -0.15870
C212        C  0.06435454  0.12124188  0.18078362    -0.31040
H213        H  0.07927628  0.16595166  0.14747125     0.13160
H214        H  0.06495298  0.09283916  0.18866453     0.13730
C215        C  0.12375638  0.14744684  0.10894614    -0.15870
C216        C  0.14196136  0.17292254  0.12322089    -0.31040
H217        H  0.12362944  0.14552873  0.07991449     0.13160
H218        H  0.14421968  0.17370421  0.15214146     0.13730
C219        C  0.09069207  0.09106305  0.11122748    -0.15870
C220        C  0.08128148  0.05852829  0.12582061    -0.31040
H221        H  0.08609512  0.09798593  0.08310479     0.13160
H222        H  0.08469045  0.05031991  0.15378466     0.13730
C223        C  0.40339951  0.43460874  0.38111576    -0.15870
C224        C  0.38953655  0.40386768  0.39525899    -0.31040
H225        H  0.40474745  0.44139130  0.35255836     0.13160
H226        H  0.39213923  0.39643301  0.42366862     0.13730
C227        C  0.36091986  0.34440050  0.39358311    -0.15870
C228        C  0.34190742  0.31998989  0.37876300    -0.31040
H229        H  0.36582946  0.34130498  0.42206842     0.13160
H230        H  0.33534107  0.32400638  0.35090462     0.13730
C231        C  0.34185236  0.39825356  0.36270176    -0.15870
C232        C  0.34235505  0.42546374  0.33815447    -0.31040
H233        H  0.31934194  0.38812850  0.37408520     0.13160
H234        H  0.36346322  0.43350854  0.32291084     0.13730
C235        C  0.38903691  0.36852244  0.33944355    -0.15870
C236        C  0.42032924  0.36910925  0.33719493    -0.31040
H237        H  0.37600257  0.35410527  0.31974142     0.13160
H238        H  0.43468312  0.38255528  0.35625536     0.13730
C239        C  0.37105102  0.37918176  0.87252640    -0.01920
C240        C  0.10623969  0.11898925  0.63294648    -0.01920
N241        N  0.43732688  0.05523705  0.01723319    -0.05550
N242        N  0.42428738  0.08659770  0.01181284    -0.57670
N243        N  0.43833811  0.47961891  0.56975829    -0.05230
N244        N  0.42020178  0.46253582  0.59460915    -0.59800
N245        N  0.45396193  0.00652720  0.58305818    -0.04830
N246        N  0.44613443  0.00863540  0.61756193    -0.57650
N247        N  0.42032966  0.02917608  0.00434786    -0.04510
N248        N  0.39476830  0.04260651  0.98989772    -0.60150
C249        C  0.39798591  0.07861191  0.99452661     0.96620
C250        C  0.42561588  0.98029215  0.62447221     0.96400
N251        N  0.48140620  0.40876046  0.50232274    -0.05740
N252        N  0.49353905  0.37971573  0.51775408    -0.58250
N253        N  0.43736321  0.46628358  0.95507700    -0.03860
N254        N  0.41232846  0.46499317  0.93554537    -0.59500
N255        N  0.46203516  0.45691933  0.93655882    -0.05770
N256        N  0.45421946  0.44907558  0.90395869    -0.58520
N257        N  0.45693530  0.41845864  0.52123225    -0.03500
N258        N  0.45223934  0.39606739  0.54991235    -0.59590
Mn259      Mn  0.43717059  0.47266527  0.51221394     1.18440
C260        C  0.47497192  0.37180664  0.54703742     0.98710
C261        C  0.42328816  0.45471832  0.90371369     0.99370
N262        N  0.52429573  0.03367451  0.57031220    -0.05790
N263        N  0.53150946  0.04138601  0.60311977    -0.62100
N264        N  0.02949024  0.07227666  0.98509101    -0.04590
N265        N  0.03354712  0.09419830  0.95592019    -0.62770
N266        N  0.50504045  0.08192051  0.00410241    -0.05290
N267        N  0.49238082  0.11044171  0.98829013    -0.62360
N268        N  0.04924777  0.02452135  0.55218135    -0.04190
N269        N  0.07393904  0.02601948  0.57238445    -0.63050
Mn270      Mn  0.48059524  0.04509182  0.54479681     1.10660
C271        C  0.06244074  0.03612605  0.60417707     0.99930
C272        C  0.51050030  0.11812383  0.95862827     1.00000
N273        N  0.03262358  0.48419885  0.92351729    -0.05300
N274        N  0.03999869  0.48225214  0.88886928    -0.60680
N275        N  0.06639776  0.46131450  0.50210116    -0.04620
N276        N  0.09215302  0.44765752  0.51591447    -0.57400
N277        N  0.04923949  0.43541752  0.48911437    -0.05930
N278        N  0.06231177  0.40401146  0.49391791    -0.60240
N279        N  0.04855767  0.51095442  0.93671529    -0.04920
N280        N  0.06651543  0.02802215  0.91156205    -0.57430
Mn281      Mn  0.00596333  0.44557045  0.96178575     1.20190
Mn282      Mn  0.04959630  0.01807385  0.99442217     1.10090
Cl283      Cl  0.49338416  0.49534426  0.00334546    -0.85400
C284        C  0.06069969  0.51038159  0.88178271     0.96930
C285        C  0.08883234  0.41170741  0.51087488     0.96730
N286        N  0.29557658  0.18082159  0.01643068    -0.05550
N287        N  0.30773015  0.14934656  0.01137438    -0.57670
N288        N  0.29511316  0.25110976  0.56827357    -0.05230
N289        N  0.31346793  0.26419630  0.59273701    -0.59800
N290        N  0.27783971  0.22360294  0.58200684    -0.04830
N291        N  0.28475251  0.21726907  0.61642152    -0.57650
N292        N  0.31407603  0.20740011  0.00312668    -0.04510
N293        N  0.33973710  0.19415412  0.98882996    -0.60150
C294        C  0.33504636  0.15781588  0.99393104     0.96620
C295        C  0.30662874  0.24343229  0.62286554     0.96400
N296        N  0.25800787  0.33106812  0.49779216    -0.05740
N297        N  0.24684273  0.36030982  0.51135810    -0.58250
N298        N  0.30312409  0.27709310  0.95210146    -0.03860
N299        N  0.32969203  0.28253507  0.93378079    -0.59500
N300        N  0.27957945  0.28848510  0.93286618    -0.05770
N301        N  0.28980661  0.30152650  0.90102894    -0.58520
N302        N  0.28091920  0.31861199  0.51751187    -0.03500
N303        N  0.28550573  0.33931794  0.54487749    -0.59590
Mn304      Mn  0.29918755  0.26403051  0.51000488     1.18440
C305        C  0.26439308  0.36550941  0.54030989     0.98710
C306        C  0.32097554  0.29728341  0.90186526     0.99370
N307        N  0.20559472  0.19990635  0.56871413    -0.05790
N308        N  0.19505793  0.18763840  0.60075074    -0.62100
N309        N  0.20437402  0.17050887  0.98374811    -0.04590
N310        N  0.19980801  0.15056158  0.95580214    -0.62770
N311        N  0.22751828  0.15781506  0.00296474    -0.05290
N312        N  0.23887366  0.12913420  0.98834566    -0.62360
N313        N  0.18241330  0.21220781  0.54947304    -0.04190
N314        N  0.15584930  0.20847790  0.56792220    -0.63050
Mn315      Mn  0.25112484  0.18978321  0.54375252     1.10660
C316        C  0.16412036  0.19369096  0.59993290     0.99930
C317        C  0.22116616  0.12453690  0.95930982     1.00000
N318        N  0.20725289  0.26520077  0.91989246    -0.05300
N319        N  0.19979542  0.27189037  0.88572673    -0.60680
N320        N  0.17145448  0.28185955  0.49888968    -0.04620
N321        N  0.14613386  0.29534846  0.51376448    -0.57400
N322        N  0.18995701  0.30828368  0.48527866    -0.05930
N323        N  0.17815765  0.33988327  0.49067233    -0.60240
N324        N  0.18997065  0.23782358  0.93379791    -0.04920
N325        N  0.17110809  0.22507099  0.90970101    -0.57430
Mn326      Mn  0.23418063  0.29883761  0.95778897     1.20190
Mn327      Mn  0.18620749  0.22504995  0.99184686     1.10090
Cl328      Cl  0.24272121  0.24449016  0.00083482    -0.85400
C329        C  0.17763957  0.24596419  0.87962676     0.96930
C330        C  0.15103428  0.33167764  0.50863603     0.96730
N331        N  0.47090995  0.30707498  0.80556674    -0.05550
N332        N  0.46713216  0.33947611  0.81708123    -0.57670
N333        N  0.46552898  0.21923183  0.83421907    -0.05230
N334        N  0.46069691  0.19109721  0.85743838    -0.59800
N335        N  0.49247849  0.23553682  0.84061317    -0.04830
N336        N  0.50623150  0.21907684  0.86796912    -0.57650
N337        N  0.44373775  0.29183285  0.79848692    -0.04510
N338        N  0.42102234  0.31374926  0.80474913    -0.60150
C339        C  0.43600463  0.34337157  0.81597498     0.96620
C340        C  0.48622056  0.19168018  0.87841859     0.96400
N341        N  0.44272602  0.17106006  0.73877335    -0.05740
N342        N  0.42459115  0.14471020  0.72750268    -0.58250
N343        N  0.41128629  0.24913584  0.73480612    -0.03860
N344        N  0.38092551  0.25462446  0.73044184    -0.59500
N345        N  0.42410012  0.24122772  0.70381507    -0.05770
N346        N  0.40330167  0.24164659  0.67822509    -0.58520
N347        N  0.43266731  0.17992390  0.77072181    -0.03500
N348        N  0.40807005  0.15955748  0.78152573    -0.59590
Mn349      Mn  0.43791271  0.23552421  0.78572214     1.18440
C350        C  0.40349502  0.13736456  0.75473047     0.98710
C351        C  0.37653335  0.25050026  0.69471478     0.99370
N352        N  0.05798211  0.24986325  0.80286329    -0.05790
N353        N  0.07922262  0.24936677  0.82798610    -0.62100
N354        N  0.04822850  0.31111919  0.73566458    -0.04590
N355        N  0.07257811  0.33144941  0.72406800    -0.62770
N356        N  0.03891014  0.31993260  0.76793337    -0.05290
N357        N  0.05751701  0.34616256  0.77867919    -0.62360
N358        N  0.07034549  0.24217563  0.77166745    -0.04190
N359        N  0.10071427  0.23653533  0.77522771    -0.63050
Mn360      Mn  0.01432979  0.27850544  0.80494047     1.10660
C361        C  0.10569079  0.24050339  0.81077519     0.99930
C362        C  0.07795234  0.35352366  0.75072490     1.00000
N363        N  0.98967000  0.25440787  0.66605210    -0.05300
N364        N  0.97644117  0.27039378  0.63804850    -0.60480
N365        N  0.03750846  0.19890516  0.71152300    -0.04620
N366        N  0.06016820  0.17612618  0.71107710    -0.57400
N367        N  0.01094052  0.18307920  0.70336912    -0.05930
N368        N  0.51533572  0.14933248  0.69612931    -0.60240
N369        N  0.01648331  0.27075753  0.67270507    -0.04920
N370        N  0.02186227  0.29838989  0.64906351    -0.57430
Mn371      Mn  0.46755496  0.21207103  0.70214100     1.20190
Mn372      Mn  0.04336891  0.25536776  0.72161437     1.10090
Cl373      Cl  0.49069210  0.24554818  0.75357595    -0.85400
C374        C  0.99676084  0.29749631  0.62752504     0.96930
C375        C  0.04617690  0.14533165  0.70141648     0.96730
N376        N  0.26901818  0.07782510  0.74187254    -0.05550
N377        N  0.29002663  0.09832921  0.75743659    -0.57670
N378        N  0.21771960  0.04620174  0.68234004    -0.05230
N379        N  0.20131000  0.05181532  0.65331032    -0.59800
N380        N  0.20418616  0.05991518  0.71033064    -0.04830
N381        N  0.17813841  0.07506948  0.70102203    -0.57650
N382        N  0.28169589  0.06434481  0.71313330    -0.04510
N383        N  0.31112832  0.07553388  0.70859189    -0.60150
C384        C  0.31596114  0.09685961  0.73600780     0.96620
C385        C  0.17682435  0.06968082  0.66562911     0.96400
N386        N  0.24061721  0.43901260  0.67789097    -0.05740
N387        N  0.23990514  0.41240295  0.65587347    -0.58250
N388        N  0.30410520  0.49055783  0.69259334    -0.03860
N389        N  0.33196378  0.50082631  0.67945763    -0.59500
N390        N  0.30443298  0.45834570  0.70880337    -0.05770
N391        N  0.33313232  0.44579666  0.70684169    -0.58520
N392        N  0.24240366  0.47038473  0.65960503    -0.03500
N393        N  0.24319820  0.46525109  0.62462869    -0.59590
Mn394      Mn  0.26108467  0.01885406  0.68606392     1.18440
C395        C  0.24094060  0.42896759  0.62277728     0.98710
C396        C  0.34998938  0.47306148  0.68884404     0.99370
N397        N  0.17769071  0.03168873  0.78791367    -0.05790
N398        N  0.14913189  0.04426365  0.79189131    -0.62100
N399        N  0.24072983  0.02125298  0.83715495    -0.04590
N400        N  0.24091753  0.02633314  0.87216226    -0.62770
N401        N  0.24079941  0.05263107  0.81894399    -0.05290
N402        N  0.24141256  0.07923585  0.84103690    -0.62360
N403        N  0.17899928  0.49988380  0.80509138    -0.04190
N404        N  0.15188797  0.48993488  0.82048938    -0.63050
Mn405      Mn  0.22275735  0.05698940  0.76423741     1.10660
C406        C  0.13328493  0.01740441  0.81177058     0.99930
C407        C  0.24203665  0.06266383  0.87411722     1.00000
N408        N  0.27913147  0.43211982  0.78399812    -0.05300
N409        N  0.30833896  0.42406858  0.78838880    -0.60680
N410        N  0.20173427  0.42644026  0.78523587    -0.04620
N411        N  0.17256034  0.41499189  0.79144609    -0.57400
N412        N  0.21317784  0.41329512  0.75570564    -0.05930
N413        N  0.19155575  0.39264924  0.74128764    -0.60240
N414        N  0.26736445  0.44611132  0.81285700    -0.04920
N415        N  0.28844500  0.44716197  0.83801944    -0.57430
Mn416      Mn  0.25900033  0.43406403  0.73202431     1.20190
Mn417      Mn  0.22270066  0.47230473  0.81115305     1.10090
Cl418      Cl  0.24123299  0.49555208  0.74833599    -0.85400
C419        C  0.31368108  0.43374645  0.82166993     0.96930
C420        C  0.16655422  0.39379585  0.76426585     0.96730
C421        C  0.37325446  0.12053367  0.74962512    -0.12710
C422        C  0.34673384  0.11021202  0.74451402    -0.14270
C423        C  0.10846838  0.37023072  0.75451264    -0.12710
C424        C  0.13535148  0.38036381  0.75771677    -0.14270
C425        C  0.25652771  0.39080004  0.56715276    -0.12710
C426        C  0.24864433  0.40985173  0.59100800    -0.14270
C427        C  0.23564029  0.08149618  0.90662893    -0.12710
C428        C  0.22872935  0.09995320  0.93146745    -0.14270
C429        C  0.13598220  0.24221146  0.82794309    -0.12710
C430        C  0.15761850  0.24499085  0.84848461    -0.14270
C431        C  0.34661166  0.24846685  0.67650363    -0.12710
C432        C  0.32577580  0.24518671  0.65486364    -0.14270
C433        C  0.37501361  0.10556812  0.98688741    -0.12710
C434        C  0.35753302  0.13064880  0.98673892    -0.14270
C435        C  0.11188300  0.38454636  0.51753544    -0.12710
C436        C  0.12905441  0.35917883  0.51677795    -0.14270
C437        C  0.10259620  0.51931543  0.82860459    -0.12710
C438        C  0.08059314  0.51571501  0.84979856    -0.14270
C439        C  0.40483667  0.47535551  0.65557414    -0.12710
C440        C  0.38169257  0.47158954  0.67495214    -0.14270
C441        C  0.99026256  0.32410728  0.59907328    -0.12710
C442        C  0.48280717  0.34564810  0.57536615    -0.14270
C443        C  0.50178318  0.14353630  0.92992899    -0.12710
C444        C  0.49344049  0.16473131  0.90636267    -0.14270
C445        C  0.12954158  0.10163090  0.65710160    -0.15870
C446        C  0.15288863  0.08366555  0.64291100    -0.31040
H447        H  0.12762802  0.10458015  0.68594969     0.13160
H448        H  0.15483083  0.08049425  0.61412787     0.13730
C449        C  0.08188147  0.13724692  0.65394450    -0.15870
C450        C  0.06428264  0.12125435  0.68086071    -0.31040
H451        H  0.07917445  0.16595535  0.64752119     0.13160
H452        H  0.06489785  0.09285607  0.68875768     0.13730
C453        C  0.12365738  0.14746985  0.60899866    -0.15870
C454        C  0.14185543  0.17295753  0.62326425    -0.31040
H455        H  0.12353404  0.14553771  0.57996853     0.13160
H456        H  0.14410985  0.17375246  0.65218431     0.13730
C457        C  0.09062178  0.09106534  0.61130266    -0.15870
C458        C  0.08123554  0.05852500  0.62590267    -0.31040
H459        H  0.08601828  0.09797770  0.58317946     0.13160
H460        H  0.08465041  0.05032659  0.65386817     0.13730
C461        C  0.40350224  0.43469802  0.88111180    -0.15870
C462        C  0.38963389  0.40394689  0.89522087    -0.31040
H463        H  0.40483715  0.44152750  0.85256255     0.13160
H464        H  0.39224828  0.39647209  0.92362031     0.13730
C465        C  0.36096731  0.34452040  0.89350301    -0.15870
C466        C  0.34190736  0.32015599  0.87868508    -0.31040
H467        H  0.36591088  0.34138153  0.92197681     0.13160
H468        H  0.33530999  0.32421467  0.85084138     0.13730
C469        C  0.34191957  0.39842925  0.86270886    -0.15870
C470        C  0.34241738  0.42566595  0.83819146    -0.31040
H471        H  0.31941060  0.38829957  0.87409353     0.13160
H472        H  0.36352233  0.43372684  0.82294933     0.13730
C473        C  0.38905568  0.36867157  0.83935525    -0.15870
C474        C  0.42034596  0.36927192  0.83705196    -0.31040
H475        H  0.37600064  0.35424565  0.81967675     0.13160
H476        H  0.43472283  0.38273504  0.85607773     0.13730
C477        C  0.37105192  0.87915850  0.37253670    -0.01920
C478        C  0.10625463  0.61902974  0.13291768    -0.01920
N479        N  0.43731476  0.55522824  0.51723076    -0.05550
N480        N  0.42427509  0.58658941  0.51181470    -0.57670
N481        N  0.43835263  0.97963241  0.06976554    -0.05230
N482        N  0.42021634  0.96254864  0.09461597    -0.59800
N483        N  0.45395204  0.50655494  0.08305496    -0.04830
N484        N  0.44612697  0.50865930  0.11755981    -0.57650
N485        N  0.42031565  0.52916879  0.50434578    -0.04510
N486        N  0.39475317  0.54260034  0.48989987    -0.60150
C487        C  0.39797173  0.57860499  0.49453108     0.96620
C488        C  0.42560746  0.48031669  0.12446803     0.96400
N489        N  0.48142895  0.90877145  0.00234130    -0.05740
N490        N  0.49356235  0.87972792  0.01777444    -0.58250
N491        N  0.43737253  0.96625366  0.45508391    -0.03860
N492        N  0.41233627  0.96496375  0.43555514    -0.59500
N493        N  0.46204351  0.95689154  0.43656260    -0.05770
N494        N  0.45422526  0.94904885  0.40396304    -0.58520
N495        N  0.45695592  0.91846833  0.02124793    -0.03500
N496        N  0.45225901  0.89607729  0.04992823    -0.59590
Mn497      Mn  0.43718718  0.97267300  0.01222199     1.18440
C498        C  0.47499343  0.87181807  0.04705623     0.98710
C499        C  0.42329369  0.95469068  0.40372214     0.99370
N500        N  0.52428828  0.53369948  0.07031294    -0.05790
N501        N  0.53150350  0.54140648  0.10312149    -0.62100
N502        N  0.02948895  0.57222966  0.48511714    -0.04590
N503        N  0.03354839  0.59414929  0.45594544    -0.62770
N504        N  0.50503113  0.58190479  0.50410036    -0.05290
N505        N  0.49237233  0.61042649  0.48828792    -0.62360
N506        N  0.04926882  0.52452420  0.05219162    -0.04190
N507        N  0.07396249  0.52603379  0.07238958    -0.63050
Mn508      Mn  0.48058755  0.54511970  0.04479698     1.10660
C509        C  0.06246639  0.53614584  0.10418064     0.99930
C510        C  0.51049184  0.61810788  0.45862595     1.00000
N511        N  0.03260089  0.98420063  0.42350289    -0.05300
N512        N  0.03998351  0.98224897  0.38885708    -0.60680
N513        N  0.06639518  0.96135776  0.00207114    -0.04620
N514        N  0.09215474  0.94770150  0.01587437    -0.57400
N515        N  0.04923258  0.93546001  0.98909233    -0.05930
N516        N  0.06230631  0.90405418  0.99389121    -0.60240
N517        N  0.04853710  0.01095389  0.43670267    -0.04920
N518        N  0.06652329  0.52799061  0.41159276    -0.57430
Mn519      Mn  0.00593403  0.94557553  0.46177169     1.20190
Mn520      Mn  0.04959805  0.51802988  0.49445149     1.10090
Cl521      Cl  0.49339374  0.99531614  0.50334684    -0.85400
C522        C  0.06069077  0.01037333  0.38177350     0.96930
C523        C  0.08883240  0.91175100  0.01083727     0.96730
N524        N  0.29555511  0.68080980  0.51643317    -0.05550
N525        N  0.30770978  0.64933488  0.51137904    -0.57670
N526        N  0.29512226  0.75114300  0.06824713    -0.05230
N527        N  0.31347999  0.76422343  0.09271134    -0.59800
N528        N  0.27784697  0.72363660  0.08197794    -0.04830
N529        N  0.28476140  0.71729699  0.11639147    -0.57650
N530        N  0.31405523  0.70738840  0.50313075    -0.04510
N531        N  0.33971777  0.69414289  0.48883741    -0.60150
C532        C  0.33502737  0.65780480  0.49393871     0.96620
C533        C  0.30664071  0.74345614  0.12283795     0.96400
N534        N  0.25801923  0.83110654  0.99776821    -0.05740
N535        N  0.24685125  0.86034361  0.01134101    -0.58250
N536        N  0.30310844  0.77708102  0.45210570    -0.03860
N537        N  0.32967794  0.78251927  0.43378760    -0.59500
N538        N  0.27956629  0.78847574  0.43286822    -0.05770
N539        N  0.28979657  0.80151540  0.40103162    -0.58520
N540        N  0.28092961  0.81864724  0.01748773    -0.03500
N541        N  0.28551252  0.83934611  0.04485938    -0.59590
Mn542      Mn  0.29919698  0.76406663  0.00997824     1.18440
C543        C  0.26439896  0.86553686  0.04029643     0.98710
C544        C  0.32096492  0.79726842  0.40187109     0.99370
N545        N  0.20560013  0.69994896  0.06867844    -0.05790
N546        N  0.19506217  0.68768243  0.10071486    -0.62100
N547        N  0.20435541  0.67049930  0.48374104    -0.04590
N548        N  0.19979109  0.65055039  0.45579598    -0.62770
N549        N  0.22749728  0.65780526  0.50296147    -0.05290
N550        N  0.23885273  0.62912267  0.48834586    -0.62360
N551        N  0.18241969  0.71225143  0.04943622    -0.04190
N552        N  0.15585510  0.70852317  0.06788441    -0.63050
Mn553      Mn  0.25113034  0.68982205  0.04371972     1.10660
C554        C  0.16412504  0.69373680  0.09989573     0.99930
C555        C  0.22114776  0.62452460  0.45930823     1.00000
N556        N  0.20724462  0.76519128  0.41988377    -0.05300
N557        N  0.19979682  0.77187759  0.38571454    -0.60680
N558        N  0.17146360  0.78190487  0.99885213    -0.04620
N559        N  0.14614043  0.79539413  0.01372099    -0.57400
N560        N  0.18996771  0.80832887  0.98524392    -0.05930
N561        N  0.17816684  0.83992865  0.99063370    -0.60240
N562        N  0.18996028  0.73781413  0.43378551    -0.04920
N563        N  0.17110527  0.72505850  0.40968268    -0.57430
Mn564      Mn  0.23416545  0.79882857  0.45778528     1.20190
Mn565      Mn  0.18618870  0.72504095  0.49183470     1.10090
Cl566      Cl  0.24270155  0.74448011  0.50083132    -0.85400
C567        C  0.17764430  0.74594975  0.37960876     0.96930
C568        C  0.15104075  0.83172335  0.00859207     0.96730
N569        N  0.47091287  0.80706564  0.30556416    -0.05550
N570        N  0.46713416  0.83946498  0.31708253    -0.57670
N571        N  0.46552581  0.71922274  0.33421746    -0.05230
N572        N  0.46069217  0.69108655  0.35743468    -0.59800
N573        N  0.49247488  0.73552695  0.34061528    -0.04830
N574        N  0.50622587  0.71906484  0.36797154    -0.57650
N575        N  0.44374112  0.79182449  0.29848070    -0.04510
N576        N  0.42102538  0.81373973  0.30474397    -0.60150
C577        C  0.43600668  0.84336019  0.31597475     0.96620
C578        C  0.48621427  0.69166774  0.37841755     0.96400
N579        N  0.44272566  0.67105234  0.23877000    -0.05740
N580        N  0.42458859  0.64470438  0.22749919    -0.58250
N581        N  0.41129141  0.74913032  0.23479599    -0.03860
N582        N  0.38093188  0.75462401  0.23042632    -0.59500
N583        N  0.42410787  0.74122113  0.20380671    -0.05770
N584        N  0.40331282  0.74164385  0.17821290    -0.58520
N585        N  0.43266741  0.67991716  0.27071822    -0.03500
N586        N  0.40806905  0.65955302  0.28152241    -0.59590
Mn587      Mn  0.43791394  0.73551694  0.28571668     1.18440
C588        C  0.40349214  0.63736074  0.25472728     0.98710
C589        C  0.37654349  0.75050133  0.19469798     0.99370
N590        N  0.05799542  0.74983636  0.30285416    -0.05790
N591        N  0.07923933  0.74932566  0.32797287    -0.62100
N592        N  0.04822185  0.81113871  0.23569661    -0.04590
N593        N  0.07256837  0.83147640  0.22410528    -0.62770
N594        N  0.03891396  0.81992523  0.26797838    -0.05290
N595        N  0.05752681  0.84614323  0.27873827    -0.62360
N596        N  0.07035637  0.74217827  0.27164791    -0.04190
N597        N  0.10072743  0.73654452  0.27519713    -0.63050
Mn598      Mn  0.01434188  0.77846965  0.30496441     1.10660
C599        C  0.10570746  0.74048462  0.31074850     0.99930
C600        C  0.07795347  0.85352605  0.25077934     1.00000
N601        N  0.98966138  0.75446681  0.16605606    -0.05300
N602        N  0.97643076  0.77046072  0.13805790    -0.60480
N603        N  0.03751293  0.69894676  0.21148323    -0.04620
N604        N  0.06017339  0.67616918  0.21103520    -0.57400
N605        N  0.01094566  0.68312110  0.20332665    -0.05930
N606        N  0.51533800  0.64931776  0.19614219    -0.60240
N607        N  0.01647391  0.77081586  0.17271317    -0.04920
N608        N  0.02185095  0.79845564  0.14907970    -0.57430
Mn609      Mn  0.46756090  0.71206108  0.20213986     1.20190
Mn610      Mn  0.04336832  0.75539992  0.22160891     1.10090
Cl611      Cl  0.49069588  0.74553708  0.25357781    -0.85400
C612        C  0.99674842  0.79756801  0.12754235     0.96930
C613        C  0.04618276  0.64537586  0.20137128     0.96730
N614        N  0.26901107  0.57783210  0.24187366    -0.05550
N615        N  0.29002013  0.59833431  0.25743921    -0.57670
N616        N  0.21771489  0.54621657  0.18233675    -0.05230
N617        N  0.20131346  0.55184467  0.15330333    -0.59800
N618        N  0.20417999  0.55992809  0.21032768    -0.04830
N619        N  0.17813901  0.57509593  0.20101508    -0.57650
N620        N  0.28168834  0.56435483  0.21313258    -0.04510
N621        N  0.31112052  0.57554420  0.20859107    -0.60150
C622        C  0.31595414  0.59686676  0.23600898     0.96620
C623        C  0.17683125  0.56971715  0.16561955     0.96400
N624        N  0.24062498  0.93900986  0.17789851    -0.05740
N625        N  0.23991126  0.91240281  0.15587771    -0.58250
N626        N  0.30411486  0.99055347  0.19260251    -0.03860
N627        N  0.33197299  0.00082433  0.17946732    -0.59500
N628        N  0.30444331  0.95834004  0.20880957    -0.05770
N629        N  0.33314342  0.94579263  0.20684628    -0.58520
N630        N  0.24241160  0.97038360  0.15961562    -0.03500
N631        N  0.24320352  0.96525417  0.12463860    -0.59590
Mn632      Mn  0.26107880  0.51886726  0.18605896     1.18440
C633        C  0.24094492  0.92897141  0.12278300     0.98710
C634        C  0.34999972  0.97305982  0.18885054     0.99370
N635        N  0.17768222  0.53169113  0.28791186    -0.05790
N636        N  0.14912440  0.54426679  0.29189864    -0.62100
N637        N  0.24072180  0.52124910  0.33714988    -0.04590
N638        N  0.24090814  0.52632534  0.37215798    -0.62770
N639        N  0.24079132  0.55262906  0.31894229    -0.05290
N640        N  0.24140340  0.57923114  0.34103824    -0.62360
N641        N  0.17901180  0.99987748  0.30510636    -0.04190
N642        N  0.15190007  0.98992614  0.32050238    -0.63050
Mn643      Mn  0.22274938  0.55699439  0.26423623     1.10660
C644        C  0.13327947  0.51740507  0.31177724     0.99930
C645        C  0.24202664  0.56265558  0.37411686     1.00000
N646        N  0.27914201  0.93211233  0.28400457    -0.05300
N647        N  0.30834870  0.92405734  0.28839398    -0.60680
N648        N  0.20174720  0.92643472  0.28525108    -0.04620
N649        N  0.17257537  0.91498397  0.29147063    -0.57400
N650        N  0.21318569  0.91328983  0.25571818    -0.05930
N651        N  0.19156096  0.89264139  0.24130738    -0.60240
N652        N  0.26737707  0.94610389  0.31286451    -0.04920
N653        N  0.28845798  0.94715034  0.33802664    -0.57430
Mn654      Mn  0.25900917  0.93405810  0.23203192     1.20190
Mn655      Mn  0.22271431  0.97229845  0.31116478     1.10090
Cl656      Cl  0.24124403  0.99554658  0.24834726    -0.85400
C657        C  0.31369227  0.93373279  0.32167550     0.96930
C658        C  0.16656407  0.89378671  0.26429341     0.96730
C659        C  0.37324991  0.62053383  0.24962302    -0.12710
C660        C  0.34672767  0.61021629  0.24451489    -0.14270
C661        C  0.10847306  0.87022532  0.25456489    -0.12710
C662        C  0.13535913  0.88035372  0.25775646    -0.14270
C663        C  0.25652955  0.89081760  0.06714728    -0.12710
C664        C  0.24864618  0.90986083  0.09100954    -0.14270
C665        C  0.23562732  0.58148416  0.40662979    -0.12710
C666        C  0.22871360  0.59994023  0.43146783    -0.14270
C667        C  0.13600026  0.74219328  0.32791244    -0.12710
C668        C  0.15763260  0.74497345  0.34845898    -0.14270
C669        C  0.34662396  0.74847637  0.17647986    -0.12710
C670        C  0.32578931  0.74520355  0.15483643    -0.14270
C671        C  0.37499835  0.60556072  0.48689651    -0.12710
C672        C  0.35751555  0.63063907  0.48674895    -0.14270
C673        C  0.11188580  0.88459064  0.01748915    -0.12710
C674        C  0.12905906  0.85922458  0.01672987    -0.14270
C675        C  0.10260254  0.01929983  0.32860897    -0.12710
C676        C  0.08059348  0.01569981  0.34979536    -0.14270
C677        C  0.40484811  0.97536555  0.15558083    -0.12710
C678        C  0.38170382  0.97159286  0.17495854    -0.14270
C679        C  0.99025278  0.82418024  0.09909009    -0.12710
C680        C  0.48282540  0.84565586  0.07538373    -0.14270
C681        C  0.50177508  0.64352060  0.42992635    -0.12710
C682        C  0.49343281  0.66471656  0.40636040    -0.14270
C683        C  0.12955744  0.60168343  0.15708036    -0.15870
C684        C  0.15290505  0.58371469  0.14289609    -0.31040
H685        H  0.12764013  0.60463655  0.18592758     0.13160
H686        H  0.15485040  0.58054038  0.11411363     0.13730
C687        C  0.08189111  0.63728792  0.15390629    -0.15870
C688        C  0.06429026  0.62129713  0.18082121    -0.31040
H689        H  0.07918111  0.66599489  0.14747697     0.13160
H690        H  0.06490840  0.59290082  0.18872519     0.13730
C691        C  0.12366980  0.64750739  0.10896439    -0.15870
C692        C  0.14185958  0.67300473  0.12322667    -0.31040
H693        H  0.12355172  0.64556599  0.07993523     0.13160
H694        H  0.14410822  0.67380913  0.15214673     0.13730
C695        C  0.09064246  0.59109426  0.11128250    -0.15870
C696        C  0.08126061  0.55855679  0.12589463    -0.31040
H697        H  0.08603687  0.59799664  0.08315792     0.13160
H698        H  0.08467841  0.55036862  0.15386202     0.13730
C699        C  0.40350592  0.93467177  0.38112208    -0.15870
C700        C  0.38963660  0.90392119  0.39523158    -0.31040
H701        H  0.40484046  0.94150180  0.35257310     0.13160
H702        H  0.39225113  0.89644563  0.42363081     0.13730
C703        C  0.36096288  0.84449874  0.39351249    -0.15870
C704        C  0.34190035  0.82013805  0.37869284    -0.31040
H705        H  0.36590488  0.84135868  0.42198663     0.13160
H706        H  0.33530457  0.82419848  0.35084878     0.13730
C707        C  0.34192389  0.89841133  0.36271711    -0.15870
C708        C  0.34242674  0.92564528  0.33819650    -0.31040
H709        H  0.31941346  0.88828805  0.37410308     0.13160
H710        H  0.36353244  0.93369837  0.32295234     0.13730
C711        C  0.38905641  0.86864558  0.33936669    -0.15870
C712        C  0.42034665  0.86925393  0.33705783    -0.31040
H713        H  0.37600117  0.85421858  0.31968915     0.13160
H714        H  0.43472426  0.88271794  0.35608216     0.13730
C715        C  0.37101857  0.87906100  0.87255527    -0.01920
C716        C  0.10629823  0.61897005  0.63288208    -0.01920
N717        N  0.43732705  0.55518572  0.01727871    -0.05550
N718        N  0.42426243  0.58653335  0.01187072    -0.57670
N719        N  0.43839401  0.97955050  0.56981905    -0.05230
N720        N  0.42024781  0.96247522  0.59466547    -0.59800
N721        N  0.45392723  0.50657667  0.58300288    -0.04830
N722        N  0.44612402  0.50866489  0.61751628    -0.57650
N723        N  0.42034194  0.52911138  0.00440017    -0.04510
N724        N  0.39476484  0.54251720  0.98996627    -0.60150
C725        C  0.39795879  0.57852330  0.99459789     0.96620
C726        C  0.42559707  0.48032851  0.62442426     0.96400
N727        N  0.48150450  0.90871706  0.50237798    -0.05740
N728        N  0.49364007  0.87966758  0.51779581    -0.58250
N729        N  0.43730423  0.96630761  0.95503050    -0.03860
N730        N  0.41226054  0.96497234  0.93551491    -0.59500
N731        N  0.46197325  0.95693355  0.93651233    -0.05770
N732        N  0.45414743  0.94904445  0.90392838    -0.58520
N733        N  0.45702823  0.91839899  0.52128772    -0.03500
N734        N  0.45233009  0.89599134  0.54995486    -0.59590
Mn735      Mn  0.43723907  0.97259327  0.51227495     1.18440
C736        C  0.47506824  0.87173861  0.54707103     0.98710
C737        C  0.42321308  0.95466579  0.90369167     0.99370
N738        N  0.52427581  0.53368283  0.57024530    -0.05790
N739        N  0.53150494  0.54138093  0.60305233    -0.62100
N740        N  0.02951846  0.57223926  0.98516380    -0.04590
N741        N  0.03358058  0.59415406  0.95598929    -0.62770
N742        N  0.50503825  0.58189961  0.00415660    -0.05290
N743        N  0.49236695  0.61040657  0.98833181    -0.62360
N744        N  0.04924755  0.52450602  0.55213579    -0.04190
N745        N  0.07394640  0.52601640  0.57232544    -0.63050
Mn746      Mn  0.48057318  0.54513179  0.54474241     1.10660
C747        C  0.06245768  0.53612861  0.60411949     0.99930
C748        C  0.51049100  0.61809273  0.95867453     1.00000
N749        N  0.03256990  0.98423162  0.92343646    -0.05300
N750        N  0.03994944  0.98227946  0.88878966    -0.60680
N751        N  0.06640318  0.96132712  0.50215435    -0.04620
N752        N  0.09215528  0.94766956  0.51597428    -0.57400
N753        N  0.04924538  0.93543027  0.48916659    -0.05930
N754        N  0.06231458  0.90402345  0.49397659    -0.60240
N755        N  0.04850527  0.01098799  0.93663204    -0.04920
N756        N  0.06656471  0.52799356  0.91164470    -0.57430
Mn757      Mn  0.00591201  0.94560546  0.96171593     1.20190
Mn758      Mn  0.04963034  0.51804369  0.99450780     1.10090
Cl759      Cl  0.49335131  0.99536486  0.00328936    -0.85400
C760        C  0.06065295  0.01040730  0.88170205     0.96930
C761        C  0.08883236  0.91171917  0.51093872     0.96730
N762        N  0.29550362  0.68071388  0.01648103    -0.05550
N763        N  0.30765064  0.64923164  0.01143909    -0.57670
N764        N  0.29515157  0.75122785  0.56821238    -0.05230
N765        N  0.31351212  0.76430720  0.59267509    -0.59800
N766        N  0.27789043  0.72370821  0.58194006    -0.04830
N767        N  0.28481679  0.71735903  0.61634801    -0.57650
N768        N  0.31401578  0.70728203  0.00317982    -0.04510
N769        N  0.33967761  0.69402321  0.98890030    -0.60150
C770        C  0.33497572  0.65768794  0.99400740     0.96620
C771        C  0.30668799  0.74352511  0.62279667     0.96400
N772        N  0.25799671  0.83117733  0.49774663    -0.05740
N773        N  0.24682220  0.86041378  0.51131404    -0.58250
N774        N  0.30311251  0.77697623  0.95214144    -0.03860
N775        N  0.32968626  0.78239609  0.93382746    -0.59500
N776        N  0.27957846  0.78838322  0.93289792    -0.05770
N777        N  0.28981768  0.80141000  0.90106080    -0.58520
N778        N  0.28091587  0.81873358  0.51746178    -0.03500
N779        N  0.28549831  0.83944326  0.54482578    -0.59590
Mn780      Mn  0.29920978  0.76416334  0.50994271     1.18440
C781        C  0.26437455  0.86562378  0.54026219     0.98710
C782        C  0.32098305  0.79714405  0.90190616     0.99370
N783        N  0.20565364  0.69996518  0.56866274    -0.05790
N784        N  0.19512623  0.68766656  0.60069320    -0.62100
N785        N  0.20430352  0.67047046  0.98375991    -0.04590
N786        N  0.19974397  0.65053457  0.95580433    -0.62770
N787        N  0.22743540  0.65776040  0.00298681    -0.05290
N788        N  0.23878799  0.62907974  0.98836417    -0.62360
N789        N  0.18246168  0.71225067  0.54942880    -0.04190
N790        N  0.15589936  0.70847860  0.56787717    -0.63050
Mn791      Mn  0.25118451  0.68988187  0.54368670     1.10660
C792        C  0.16418267  0.69368303  0.59987948     0.99930
C793        C  0.22109200  0.62449973  0.95931573     1.00000
N794        N  0.20725306  0.76514939  0.91989303    -0.05300
N795        N  0.19981923  0.77183240  0.88571889    -0.60680
N796        N  0.17146903  0.78190726  0.49886447    -0.04620
N797        N  0.14615206  0.79537728  0.51376620    -0.57400
N798        N  0.18995580  0.80834493  0.48525090    -0.05930
N799        N  0.17814923  0.83993526  0.49066878    -0.60240
N800        N  0.18995287  0.73778514  0.93379365    -0.04920
N801        N  0.17110042  0.72503439  0.90968625    -0.57430
Mn802      Mn  0.23418045  0.79877370  0.95779961     1.20190
Mn803      Mn  0.18616134  0.72502542  0.99184178     1.10090
Cl804      Cl  0.24268157  0.74442319  0.00085410    -0.85400
C805        C  0.17765789  0.74591522  0.87961039     0.96930
C806        C  0.15103835  0.83170921  0.50865008     0.96730
N807        N  0.47093178  0.80699083  0.80557548    -0.05550
N808        N  0.46714650  0.83937241  0.81713833    -0.57670
N809        N  0.46553794  0.71914918  0.83421452    -0.05230
N810        N  0.46069612  0.69102058  0.85743919    -0.59800
N811        N  0.49248740  0.73545117  0.84061505    -0.04830
N812        N  0.50623097  0.71899585  0.86797985    -0.57650
N813        N  0.44376163  0.79175153  0.79848217    -0.04510
N814        N  0.42104164  0.81365086  0.80477932    -0.60150
C815        C  0.43601691  0.84325981  0.81604312     0.96620
C816        C  0.48621434  0.69160502  0.87842833     0.96400
N817        N  0.44274191  0.67097535  0.73876386    -0.05740
N818        N  0.42460124  0.64463071  0.72749226    -0.58250
N819        N  0.41132960  0.74907226  0.73477780    -0.03860
N820        N  0.38097762  0.75460279  0.73039610    -0.59500
N821        N  0.42414723  0.74115151  0.70379301    -0.05770
N822        N  0.40336082  0.74160113  0.67818988    -0.58520
N823        N  0.43268053  0.67984692  0.77070850    -0.03500
N824        N  0.40807679  0.65949017  0.78150977    -0.59590
Mn825      Mn  0.43793549  0.73544711  0.78570671     1.18440
C826        C  0.40349922  0.63729582  0.75471654     0.98710
C827        C  0.37659601  0.75048853  0.69466521     0.99370
N828        N  0.05801873  0.74980991  0.80284915    -0.05790
N829        N  0.07926294  0.74930283  0.82796754    -0.62100
N830        N  0.04823157  0.81109748  0.73568831    -0.04590
N831        N  0.07256467  0.83145332  0.72408942    -0.62770
N832        N  0.03891536  0.81988951  0.76796500    -0.05290
N833        N  0.05750766  0.84613111  0.77871432    -0.62360
N834        N  0.07037958  0.74214518  0.77164488    -0.04190
N835        N  0.10075024  0.73651066  0.77519452    -0.63050
Mn836      Mn  0.01435761  0.77843278  0.80495915     1.10660
C837        C  0.10573053  0.74045756  0.81074434     0.99930
C838        C  0.07793062  0.85352149  0.75075337     1.00000
N839        N  0.98968876  0.75439955  0.66605445    -0.05300
N840        N  0.97645365  0.77038991  0.63805779    -0.60480
N841        N  0.03755099  0.69889849  0.71147795    -0.04620
N842        N  0.06021938  0.67613209  0.71100541    -0.57400
N843        N  0.01098454  0.68306491  0.70332970    -0.05930
N844        N  0.51536280  0.64922620  0.69611466    -0.60240
N845        N  0.01649794  0.77075639  0.67271034    -0.04920
N846        N  0.02186841  0.79839793  0.64907808    -0.57430
Mn847      Mn  0.46759111  0.71197378  0.70213528     1.20190
Mn848      Mn  0.04339298  0.75535429  0.72160543     1.10090
Cl849      Cl  0.49072122  0.74545143  0.75357594    -0.85400
C850        C  0.99676554  0.79750270  0.62754240     0.96930
C851        C  0.04623265  0.64533721  0.70133972     0.96730
N852        N  0.26901360  0.57777707  0.74185758    -0.05550
N853        N  0.29002163  0.59828405  0.75741948    -0.57670
N854        N  0.21772507  0.54611569  0.68232962    -0.05230
N855        N  0.20132534  0.55172809  0.65329208    -0.59800
N856        N  0.20418711  0.55983862  0.71031209    -0.04830
N857        N  0.17814534  0.57499770  0.70098983    -0.57650
N858        N  0.28169351  0.56429133  0.71312222    -0.04510
N859        N  0.31112606  0.57547967  0.70858151    -0.60150
C860        C  0.31595761  0.59681061  0.73599311     0.96620
C861        C  0.17683993  0.56960222  0.66559755     0.96400
N862        N  0.24057945  0.93909616  0.67785498    -0.05740
N863        N  0.23986238  0.91249584  0.65582640    -0.58250
N864        N  0.30408670  0.99060471  0.69257813    -0.03860
N865        N  0.33195104  0.00086467  0.67945279    -0.59500
N866        N  0.30440112  0.95838610  0.70877674    -0.05770
N867        N  0.33309562  0.94582461  0.70681907    -0.58520
N868        N  0.24237924  0.97047411  0.65958028    -0.03500
N869        N  0.24317837  0.96535332  0.62460114    -0.59590
Mn870      Mn  0.26109468  0.51878425  0.68606845     1.18440
C871        C  0.24090941  0.92907182  0.62273536     0.98710
C872        C  0.34996468  0.97308702  0.68883488     0.99370
N873        N  0.17768626  0.53163779  0.78790313    -0.05790
N874        N  0.14913167  0.54421927  0.79189767    -0.62100
N875        N  0.24071407  0.52123579  0.83715566    -0.04590
N876        N  0.24088939  0.52632233  0.87216169    -0.62770
N877        N  0.24078160  0.55260965  0.81893769    -0.05290
N878        N  0.24137841  0.57921911  0.84102616    -0.62360
N879        N  0.17900107  0.99993273  0.80509818    -0.04190
N880        N  0.15188388  0.98997584  0.82047742    -0.63050
Mn881      Mn  0.22275129  0.55694071  0.76422338     1.10660
C882        C  0.13328938  0.51736566  0.81178968     0.99930
C883        C  0.24199673  0.56265316  0.87411044     1.00000
N884        N  0.27909925  0.93211750  0.78395834    -0.05300
N885        N  0.30828864  0.92398927  0.78835325    -0.60680
N886        N  0.20170775  0.92649030  0.78521085    -0.04620
N887        N  0.17253564  0.91504101  0.79143326    -0.57400
N888        N  0.21313923  0.91335404  0.75567003    -0.05930
N889        N  0.19151144  0.89271174  0.74125774    -0.60240
N890        N  0.26734823  0.94610217  0.81282909    -0.04920
N891        N  0.28842131  0.94706949  0.83800602    -0.57430
Mn892      Mn  0.25896395  0.93411318  0.73198716     1.20190
Mn893      Mn  0.22269589  0.97233430  0.81114246     1.10090
Cl894      Cl  0.24122283  0.99560152  0.74832710    -0.85400
C895        C  0.31363552  0.93360671  0.82165304     0.96930
C896        C  0.16651865  0.89385318  0.76424949     0.96730
C897        C  0.37325476  0.62047426  0.74960924    -0.12710
C898        C  0.34673157  0.61015972  0.74450001    -0.14270
C899        C  0.10843625  0.87025651  0.75453235    -0.12710
C900        C  0.13531595  0.88040891  0.75772098    -0.14270
C901        C  0.25650420  0.89091420  0.56710489    -0.12710
C902        C  0.24861726  0.90996378  0.59096118    -0.14270
C903        C  0.23558634  0.58148552  0.90661901    -0.12710
C904        C  0.22866542  0.59993109  0.93146306    -0.14270
C905        C  0.13602323  0.74216487  0.82790702    -0.12710
C906        C  0.15765463  0.74494311  0.84845435    -0.14270
C907        C  0.34668154  0.74850534  0.67643425    -0.12710
C908        C  0.32584670  0.74525917  0.65478743    -0.14270
C909        C  0.37496088  0.60545336  0.98697686    -0.12710
C910        C  0.35746272  0.63051695  0.98683151    -0.14270
C911        C  0.11188322  0.88455989  0.51759626    -0.12710
C912        C  0.12905621  0.85919593  0.51682353    -0.14270
C913        C  0.10257737  0.01933918  0.82855464    -0.12710
C914        C  0.08055882  0.01573235  0.84972697    -0.14270
C915        C  0.40482787  0.97534465  0.65559897    -0.12710
C916        C  0.38167066  0.97160171  0.67495716    -0.14270
C917        C  0.99026029  0.82411804  0.59909904    -0.12710
C918        C  0.48289806  0.84556116  0.57538320    -0.14270
C919        C  0.50176672  0.64348624  0.92996355    -0.12710
C920        C  0.49342366  0.66466637  0.90638508    -0.14270
C921        C  0.12958622  0.60159662  0.65704388    -0.15870
C922        C  0.15292193  0.58360546  0.64286492    -0.31040
H923        H  0.12766930  0.60455199  0.68589084     0.13160
H924        H  0.15486889  0.58042752  0.61408323     0.13730
C925        C  0.08194776  0.63724352  0.65387808    -0.15870
C926        C  0.06433765  0.62125748  0.68078778    -0.31040
H927        H  0.07925588  0.66595503  0.64745880     0.13160
H928        H  0.06493574  0.59285700  0.68867888     0.13730
C929        C  0.12373168  0.64744117  0.60893800    -0.15870
C930        C  0.14193312  0.67292293  0.62320844    -0.31040
H931        H  0.12360562  0.64551590  0.57990722     0.13160
H932        H  0.14418925  0.67371140  0.65212879     0.13730
C933        C  0.09066845  0.59105416  0.61123704    -0.15870
C934        C  0.08126134  0.55852229  0.62584110    -0.31040
H935        H  0.08607433  0.59796545  0.58311141     0.13160
H936        H  0.08466973  0.55032514  0.65380803     0.13730
C937        C  0.40343027  0.93461385  0.88110996    -0.15870
C938        C  0.38957002  0.90386703  0.89524128    -0.31040
H939        H  0.40477424  0.94141004  0.85255480     0.13160
H940        H  0.39217624  0.89642099  0.92364800     0.13730
C941        C  0.36094879  0.84440619  0.89355073    -0.15870
C942        C  0.34192692  0.82000491  0.87873097    -0.31040
H943        H  0.36586468  0.84130155  0.92203389     0.13160
H944        H  0.33535542  0.82402962  0.85087516     0.13730
C945        C  0.34187661  0.89827093  0.86269593    -0.15870
C946        C  0.34237261  0.92549203  0.83816093    -0.31040
H947        H  0.31936819  0.88813871  0.87407913     0.13160
H948        H  0.36347870  0.93354794  0.82291834     0.13730
C949        C  0.38905376  0.86854456  0.83940850    -0.15870
C950        C  0.42034576  0.86913100  0.83714791    -0.31040
H951        H  0.37601403  0.85412930  0.81970951     0.13160
H952        H  0.43470487  0.88257740  0.85620309     0.13730
C953        C  0.87101261  0.37904614  0.37254283    -0.01920
C954        C  0.60630544  0.11901390  0.13288719    -0.01920
N955        N  0.93731797  0.05519148  0.51725381    -0.05550
N956        N  0.92426219  0.08654433  0.51184585    -0.57670
N957        N  0.93837884  0.47957105  0.06980466    -0.05230
N958        N  0.92023183  0.46249722  0.09465105    -0.59800
N959        N  0.95393731  0.00658526  0.08299023    -0.04830
N960        N  0.94612920  0.00867652  0.11750208    -0.57650
N961        N  0.92032494  0.02912290  0.50437664    -0.04510
N962        N  0.89475102  0.04253847  0.48994402    -0.60150
C963        C  0.89795559  0.07854403  0.49457449     0.96620
C964        C  0.92560367  0.98033848  0.12440999     0.96400
N965        N  0.98147576  0.40872642  0.00236837    -0.05740
N966        N  0.99360955  0.37967811  0.01779000    -0.58250
N967        N  0.93730796  0.46625854  0.45502437    -0.03860
N968        N  0.91226507  0.46493532  0.43550733    -0.59500
N969        N  0.96197698  0.45689054  0.43650245    -0.05770
N970        N  0.95415113  0.44901520  0.40391455    -0.58520
N971        N  0.95700121  0.41841443  0.02127722    -0.03500
N972        N  0.95230304  0.39601212  0.04994847    -0.59590
Mn973      Mn  0.93722139  0.47261338  0.01226085     1.18440
C974        C  0.97503895  0.37175619  0.04706714     0.98710
C975        C  0.92321703  0.45463989  0.40367991     0.99370
N976        N  0.02428658  0.03370365  0.07022552    -0.05790
N977        N  0.03151943  0.04140931  0.10302947    -0.62100
N978        N  0.52951671  0.07224164  0.48517684    -0.04590
N979        N  0.53357297  0.09415591  0.45600073    -0.62770
N980        N  0.00503569  0.08188173  0.50412997    -0.05290
N981        N  0.99237394  0.11039557  0.48830658    -0.62360
N982        N  0.54925817  0.02455314  0.05213288    -0.04190
N983        N  0.57395896  0.02605674  0.07232003    -0.63050
Mn984      Mn  0.98057930  0.04514262  0.04472694     1.10660
C985        C  0.56247501  0.03617014  0.10411558     0.99930
C986        C  0.01050086  0.11807624  0.45865044     1.00000
N987        N  0.53256317  0.48421891  0.42345372    -0.05300
N988        N  0.53994525  0.48226794  0.38880736    -0.60680
N989        N  0.56643949  0.46136664  0.00218084    -0.04620
N990        N  0.59219378  0.44771578  0.01600247    -0.57400
N991        N  0.54928766  0.43546522  0.98919221    -0.05930
N992        N  0.56236265  0.40406218  0.99400316    -0.60240
N993        N  0.54850200  0.51097041  0.43665327    -0.04920
N994        N  0.56657928  0.02800867  0.41166240    -0.57430
Mn995      Mn  0.50589654  0.44559519  0.46172789     1.20190
Mn996      Mn  0.54964022  0.01805028  0.49452281     1.10090
Cl997      Cl  0.99334821  0.49531286  0.50328497    -0.85400
C998        C  0.56065407  0.51039155  0.38172432     0.96930
C999        C  0.58887796  0.41176454  0.01096667     0.96730
N1000       N  0.79550698  0.18072980  0.51648574    -0.05550
N1001       N  0.80765875  0.14925150  0.51143785    -0.57670
N1002       N  0.79516791  0.25123203  0.06820001    -0.05230
N1003       N  0.81353049  0.26430775  0.09266272    -0.59800
N1004       N  0.77790236  0.22371614  0.08192810    -0.04830
N1005       N  0.78482742  0.21736589  0.11633619    -0.57650
N1006       N  0.81401303  0.20730367  0.50318488    -0.04510
N1007       N  0.83967574  0.19405247  0.48889905    -0.60150
C1008       C  0.83498052  0.15771582  0.49400280     0.96620
C1009       C  0.80670279  0.24352731  0.12278453     0.96400
N1010       N  0.75802388  0.33119194  0.99773631    -0.05740
N1011       N  0.74685129  0.36042790  0.01130648    -0.58250
N1012       N  0.80309072  0.27699322  0.45215198    -0.03860
N1013       N  0.82966203  0.28240890  0.43383295    -0.59500
N1014       N  0.77955416  0.28839617  0.43291071    -0.05770
N1015       N  0.78978906  0.30141754  0.40106990    -0.58520
N1016       N  0.78094059  0.31874273  0.01745194    -0.03500
N1017       N  0.78552265  0.33944819  0.04481952    -0.59590
Mn1018     Mn  0.79922579  0.26416829  0.00993016     1.18440
C1019       C  0.76440164  0.36563213  0.04025716     0.98710
C1020       C  0.82095471  0.29715134  0.40191111     0.99370
N1021       N  0.70566109  0.19998847  0.06865698    -0.05790
N1022       N  0.69513307  0.18769578  0.10068938    -0.62100
N1023       N  0.70430959  0.17045748  0.48376926    -0.04590
N1024       N  0.69975463  0.15052211  0.45581207    -0.62770
N1025       N  0.72744516  0.15775383  0.50299412    -0.05290
N1026       N  0.73880483  0.12907822  0.48836861    -0.62360
N1027       N  0.68247082  0.21228046  0.04942454    -0.04190
N1028       N  0.65590922  0.20851918  0.06787569    -0.63050
Mn1029     Mn  0.75118937  0.18989559  0.04367668     1.10660
C1030       C  0.66419098  0.19372314  0.09987850     0.99930
C1031       C  0.72110950  0.12449416  0.45932026     1.00000
N1032       N  0.70723567  0.26514128  0.41991197    -0.05300
N1033       N  0.69980018  0.27182352  0.38573864    -0.60680
N1034       N  0.67149016  0.28194187  0.99886440    -0.04620
N1035       N  0.64618057  0.29541860  0.01377594    -0.57400
N1036       N  0.68998021  0.30837526  0.98524813    -0.05930
N1037       N  0.67818323  0.33996893  0.99067352    -0.60240
N1038       N  0.68994274  0.23777060  0.43381140    -0.04920
N1039       N  0.67109363  0.22501448  0.40970392    -0.57430
Mn1040     Mn  0.73415516  0.29877262  0.45781676     1.20190
Mn1041     Mn  0.68615453  0.22500651  0.49185736     1.10090
Cl1042     Cl  0.74267018  0.24442259  0.50086696    -0.85400
C1043       C  0.67764598  0.24589905  0.37962953     0.96930
C1044       C  0.65107487  0.33174971  0.00866246     0.96730
N1045       N  0.97093532  0.30698698  0.30556536    -0.05550
N1046       N  0.96714389  0.33936899  0.31712406    -0.57670
N1047       N  0.96555841  0.21914341  0.33419675    -0.05230
N1048       N  0.96071993  0.19101238  0.35741876    -0.59800
N1049       N  0.99250548  0.23544981  0.34059872    -0.04830
N1050       N  0.00625105  0.21899461  0.36796235    -0.57650
N1051       N  0.94376811  0.29174117  0.29847148    -0.04510
N1052       N  0.92104376  0.31363568  0.30476466    -0.60150
C1053       C  0.93601347  0.34324893  0.31602640     0.96620
C1054       C  0.98623765  0.19159942  0.37840806     0.96400
N1055       N  0.94277165  0.17097347  0.23874266    -0.05740
N1056       N  0.92463326  0.14462736  0.22746988    -0.58250
N1057       N  0.91134316  0.24906207  0.23476653    -0.03860
N1058       N  0.88099077  0.25459089  0.23038651    -0.59500
N1059       N  0.92416096  0.24114705  0.20378022    -0.05770
N1060       N  0.90337438  0.24159853  0.17817733    -0.58520
N1061       N  0.93271136  0.17983911  0.27068973    -0.03500
N1062       N  0.90811188  0.15947622  0.28149195    -0.59590
Mn1063     Mn  0.93795328  0.23543826  0.28569201     1.18440
C1064       C  0.90353462  0.13728508  0.25469634     0.98710
C1065       C  0.87660918  0.25048130  0.19465488     0.99370
N1066       N  0.55800550  0.24980004  0.30287634    -0.05790
N1067       N  0.57924874  0.24929062  0.32799573    -0.62100
N1068       N  0.54823132  0.31108734  0.23571168    -0.04590
N1069       N  0.57256536  0.33144101  0.22411213    -0.62770
N1070       N  0.53891420  0.31988250  0.26798692    -0.05290
N1071       N  0.55750721  0.34612405  0.27873514    -0.62360
N1072       N  0.57036662  0.24213168  0.27167355    -0.04190
N1073       N  0.60073579  0.23649168  0.27522451    -0.63050
Mn1074     Mn  0.51434832  0.27843047  0.30497975     1.10660
C1075       C  0.60571520  0.24043944  0.31077369     0.99930
C1076       C  0.57793114  0.35351115  0.25077430     1.00000
N1077       N  0.48969765  0.25439460  0.16606800    -0.05300
N1078       N  0.47647118  0.27038478  0.13806529    -0.60480
N1079       N  0.53754391  0.19888967  0.21150771    -0.04620
N1080       N  0.56021276  0.17612457  0.21103316    -0.57400
N1081       N  0.51097880  0.18305855  0.20335127    -0.05930
N1082       N  0.01539684  0.14925203  0.19608188    -0.60240
N1083       N  0.51650701  0.27074726  0.17273004    -0.04920
N1084       N  0.52188691  0.29838529  0.14909634    -0.57430
Mn1085     Mn  0.96761073  0.21198216  0.20211653     1.20190
Mn1086     Mn  0.54338955  0.25534412  0.22163179     1.10090
Cl1087     Cl  0.99073600  0.24545984  0.25355968    -0.85400
C1088       C  0.49678930  0.29749259  0.12755299     0.96930
C1089       C  0.54622906  0.14533361  0.20135398     0.96730
N1090       N  0.76903847  0.07779813  0.24185226    -0.05550
N1091       N  0.79005318  0.09829636  0.25741412    -0.57670
N1092       N  0.71773856  0.04616420  0.18232450    -0.05230
N1093       N  0.70133920  0.05178511  0.15328840    -0.59800
N1094       N  0.70420425  0.05988519  0.21031048    -0.04830
N1095       N  0.67816477  0.07505214  0.20099118    -0.57650
N1096       N  0.78171165  0.06431420  0.21311216    -0.04510
N1097       N  0.81114564  0.07549525  0.20856779    -0.60150
C1098       C  0.81598568  0.09681951  0.23598244     0.96620
C1099       C  0.67685772  0.06966272  0.16559732     0.96400
N1100       N  0.74057180  0.43909161  0.17785330    -0.05740
N1101       N  0.73986289  0.41249203  0.15582354    -0.58250
N1102       N  0.80407811  0.49060363  0.19257096    -0.03860
N1103       N  0.83194131  0.50086760  0.17944514    -0.59500
N1104       N  0.80439563  0.45838464  0.20876795    -0.05770
N1105       N  0.83309141  0.44582676  0.20680880    -0.58520
N1106       N  0.74236957  0.47047033  0.15957966    -0.03500
N1107       N  0.74317596  0.46535026  0.12460034    -0.59590
Mn1108     Mn  0.76110089  0.01881936  0.18605250     1.18440
C1109       C  0.74091335  0.42906866  0.12273289     0.98710
C1110       C  0.84995771  0.47309190  0.18882518     0.99370
N1111       N  0.67770611  0.03167477  0.28790663    -0.05790
N1112       N  0.64915343  0.04426006  0.29191013    -0.62100
N1113       N  0.74074087  0.02124575  0.33714561    -0.04590
N1114       N  0.74091526  0.02632644  0.37215311    -0.62770
N1115       N  0.74081063  0.05262317  0.31893325    -0.05290
N1116       N  0.74140920  0.07922815  0.34102707    -0.62360
N1117       N  0.67900316  0.49992122  0.30511053    -0.04190
N1118       N  0.65188765  0.48996299  0.32049335    -0.63050
Mn1119     Mn  0.72277375  0.05697056  0.26422156     1.10660
C1120       C  0.63331088  0.01740532  0.31180135     0.99930
C1121       C  0.74202527  0.06265674  0.37410890     1.00000
N1122       N  0.77910190  0.43211418  0.28394964    -0.05300
N1123       N  0.80829298  0.42398990  0.28833699    -0.60680
N1124       N  0.70171113  0.42648127  0.28521565    -0.04620
N1125       N  0.67254023  0.41503000  0.29144292    -0.57400
N1126       N  0.71313921  0.41334711  0.25567211    -0.05930
N1127       N  0.69151011  0.39270429  0.24126276    -0.60240
N1128       N  0.76735444  0.44609659  0.31282343    -0.04920
N1129       N  0.78843204  0.44706557  0.33799520    -0.57430
Mn1130     Mn  0.75896085  0.43410908  0.23198308     1.20190
Mn1131     Mn  0.72269985  0.47232468  0.31114686     1.10090
Cl1132     Cl  0.74121966  0.49559515  0.24832997    -0.85400
C1133       C  0.81364521  0.43360772  0.32163513     0.96930
C1134       C  0.66652033  0.39384324  0.26425928     0.96730
C1135       C  0.87328953  0.12046572  0.24958971    -0.12710
C1136       C  0.84676368  0.11015826  0.24448508    -0.14270
C1137       C  0.60843674  0.37024636  0.25455147    -0.12710
C1138       C  0.63531694  0.38039856  0.25773584    -0.14270
C1139       C  0.75652758  0.39091714  0.06710406    -0.12710
C1140       C  0.74863283  0.40996321  0.09096021    -0.14270
C1141       C  0.73561192  0.08148460  0.40662054    -0.12710
C1142       C  0.72868780  0.09992808  0.43146575    -0.14270
C1143       C  0.63600764  0.24214588  0.32793386    -0.12710
C1144       C  0.65764103  0.24492502  0.34847696    -0.14270
C1145       C  0.84669494  0.24850084  0.17642374    -0.12710
C1146       C  0.82586057  0.24525805  0.15477602    -0.14270
C1147       C  0.87496389  0.10548253  0.48695737    -0.12710
C1148       C  0.85746911  0.13054923  0.48681738    -0.14270
C1149       C  0.61193245  0.38460962  0.01762436    -0.12710
C1150       C  0.62910197  0.35924285  0.01684625    -0.14270
C1151       C  0.60258068  0.51932436  0.32857841    -0.12710
C1152       C  0.58056195  0.51571668  0.34975063    -0.14270
C1153       C  0.90482081  0.47535979  0.15558872    -0.12710
C1154       C  0.88166426  0.47161221  0.17494761    -0.14270
C1155       C  0.49029424  0.32410825  0.09910659    -0.12710
C1156       C  0.98287200  0.34558593  0.07538362    -0.14270
C1157       C  0.00178573  0.14347585  0.42994084    -0.12710
C1158       C  0.99344781  0.16465993  0.40636332    -0.14270
C1159       C  0.62959746  0.10164591  0.15704772    -0.15870
C1160       C  0.65293858  0.08366604  0.14286660    -0.31040
H1161       H  0.62767875  0.10459551  0.18589553     0.13160
H1162       H  0.65488697  0.08049308  0.11408415     0.13730
C1163       C  0.58195018  0.13727356  0.15388821    -0.15870
C1164       C  0.56433896  0.12127016  0.18078864    -0.31040
H1165       H  0.57925524  0.16598666  0.14748180     0.13160
H1166       H  0.56494135  0.09286690  0.18866584     0.13730
C1167       C  0.62373188  0.14749199  0.10894370    -0.15870
C1168       C  0.64193727  0.17297186  0.12321139    -0.31040
H1169       H  0.62360295  0.14556806  0.07991282     0.13160
H1170       H  0.64419773  0.17375866  0.15213127     0.13730
C1171       C  0.59068120  0.09109683  0.11123837    -0.15870
C1172       C  0.58128542  0.05855827  0.12583555    -0.31040
H1173       H  0.58607212  0.09801739  0.08311831     0.13160
H1174       H  0.58470664  0.05035156  0.15379761     0.13730
C1175       C  0.90343219  0.43459330  0.38109688    -0.15870
C1176       C  0.88957012  0.40384702  0.39522738    -0.31040
H1177       H  0.90477386  0.44139357  0.35254253     0.13160
H1178       H  0.89217750  0.39639890  0.42363351     0.13730
C1179       C  0.86093202  0.34439795  0.39354224    -0.15870
C1180       C  0.84189744  0.32000558  0.37872855    -0.31040
H1181       H  0.86585306  0.34129156  0.42202396     0.13160
H1182       H  0.83532058  0.32403250  0.35087472     0.13730
C1183       C  0.84187757  0.39826771  0.36268087    -0.15870
C1184       C  0.84238138  0.42548281  0.33813920    -0.31040
H1185       H  0.81936689  0.38814950  0.37406966     0.13160
H1186       H  0.86348836  0.43352317  0.32289093     0.13730
C1187       C  0.88904539  0.36851668  0.33939940    -0.15870
C1188       C  0.92033745  0.36911925  0.33712667    -0.31040
H1189       H  0.87600520  0.35408878  0.31970993     0.13160
H1190       H  0.93469814  0.38257899  0.35617069     0.13730
C1191       C  0.87105228  0.37916020  0.87251157    -0.01920
C1192       C  0.60625045  0.11902556  0.63294872    -0.01920
N1193       N  0.93731833  0.05523087  0.01721691    -0.05550
N1194       N  0.92427474  0.08658974  0.01180090    -0.57670
N1195       N  0.93835089  0.47956366  0.56976226    -0.05230
N1196       N  0.92021067  0.46248316  0.59461131    -0.59800
N1197       N  0.95393271  0.00655444  0.58303172    -0.04830
N1198       N  0.94611553  0.00865579  0.61753923    -0.57650
N1199       N  0.92032191  0.02916849  0.00433299    -0.04510
N1200       N  0.89475717  0.04259575  0.98988821    -0.60150
C1201       C  0.89797157  0.07860099  0.99451880     0.96620
C1202       C  0.92559173  0.98031728  0.62444875     0.96400
N1203       N  0.98143774  0.40871877  0.50232133    -0.05740
N1204       N  0.99357427  0.37967404  0.51774803    -0.58250
N1205       N  0.93735324  0.46626947  0.95506805    -0.03860
N1206       N  0.91231845  0.46498104  0.93553588    -0.59500
N1207       N  0.96202417  0.45690133  0.93655032    -0.05770
N1208       N  0.95420813  0.44905818  0.90395028    -0.58520
N1209       N  0.95696436  0.41840892  0.52123151    -0.03500
N1210       N  0.95227012  0.39601191  0.54990751    -0.59590
Mn1211     Mn  0.93718726  0.47261000  0.51221694     1.18440
C1212       C  0.97500667  0.37175645  0.54702921     0.98710
C1213       C  0.92327765  0.45470461  0.90370426     0.99370
N1214       N  0.02427388  0.03367490  0.57028682    -0.05790
N1215       N  0.03149093  0.04137990  0.60309532    -0.62100
N1216       N  0.52950000  0.07227696  0.98511253    -0.04590
N1217       N  0.53355887  0.09419616  0.95594007    -0.62770
N1218       N  0.00503140  0.08191769  0.00408355    -0.05290
N1219       N  0.99237018  0.11043955  0.98827498    -0.62360
N1220       N  0.54927316  0.02452930  0.55220810    -0.04190
N1221       N  0.57396352  0.02603969  0.57241134    -0.63050
Mn1222     Mn  0.98057615  0.04511025  0.54477149     1.10660
C1223       C  0.56246109  0.03614547  0.60420230     0.99930
C1224       C  0.01048803  0.11812459  0.95861262     1.00000
N1225       N  0.53263315  0.48423213  0.92352907    -0.05300
N1226       N  0.54001103  0.48228951  0.88888111    -0.60680
N1227       N  0.56637786  0.46133250  0.50209309    -0.04620
N1228       N  0.59213215  0.44766941  0.51590272    -0.57400
N1229       N  0.54921318  0.43543919  0.48910947    -0.05930
N1230       N  0.56228031  0.40402978  0.49391143    -0.60240
N1231       N  0.54856222  0.51099008  0.93672978    -0.04920
N1232       N  0.56652337  0.02801742  0.91158843    -0.57430
Mn1233     Mn  0.50597579  0.44559636  0.96179551     1.20190
Mn1234     Mn  0.54960321  0.01807274  0.99444947     1.10090
Cl1235     Cl  0.99338042  0.49532254  0.00333416    -0.85400
C1236       C  0.56070797  0.51042383  0.88179774     0.96930
C1237       C  0.58880438  0.41171966  0.51086440     0.96730
N1238       N  0.79555766  0.18081441  0.01641989    -0.05550
N1239       N  0.80770798  0.14933696  0.01136608    -0.57670
N1240       N  0.79510972  0.25115646  0.56825486    -0.05230
N1241       N  0.81346640  0.26424007  0.59271798    -0.59800
N1242       N  0.77784241  0.22364301  0.58198459    -0.04830
N1243       N  0.78476155  0.21730162  0.61639615    -0.57650
N1244       N  0.81406137  0.20738961  0.00311692    -0.04510
N1245       N  0.83972176  0.19413904  0.98882373    -0.60150
C1246       C  0.83502653  0.15780162  0.99392538     0.96620
C1247       C  0.80663463  0.24346721  0.62284257     0.96400
N1248       N  0.75798823  0.33111285  0.49778323    -0.05740
N1249       N  0.74681806  0.36035060  0.51135258    -0.58250
N1250       N  0.80312355  0.27708619  0.95209187    -0.03860
N1251       N  0.82969222  0.28251708  0.93377026    -0.59500
N1252       N  0.77958170  0.28848481  0.93285608    -0.05770
N1253       N  0.78981116  0.30151951  0.90101741    -0.58520
N1254       N  0.78090224  0.31866035  0.51750099    -0.03500
N1255       N  0.78548576  0.33936502  0.54486837    -0.59590
Mn1256     Mn  0.79918099  0.26408361  0.50998787     1.18440
C1257       C  0.76436826  0.36555185  0.54030443     0.98710
C1258       C  0.82097874  0.29726539  0.90185334     0.99370
N1259       N  0.70560207  0.19993305  0.56869069    -0.05790
N1260       N  0.69506919  0.18766806  0.60072967    -0.62100
N1261       N  0.70435464  0.17052412  0.98373291    -0.04590
N1262       N  0.69978642  0.15057627  0.95578755    -0.62770
N1263       N  0.72749488  0.15782453  0.00295246    -0.05290
N1264       N  0.73884502  0.12913939  0.98833641    -0.62360
N1265       N  0.68241806  0.21222947  0.54945087    -0.04190
N1266       N  0.65585576  0.20849908  0.56790298    -0.63050
Mn1267     Mn  0.75113320  0.18982168  0.54372758     1.10660
C1268       C  0.66413106  0.19371718  0.59991409     0.99930
C1269       C  0.72113883  0.12454530  0.95929906     1.00000
N1270       N  0.70725383  0.26521867  0.91987818    -0.05300
N1271       N  0.69980131  0.27190942  0.88571110    -0.60680
N1272       N  0.67144357  0.28188078  0.49887299    -0.04620
N1273       N  0.64611824  0.29536154  0.51374589    -0.57400
N1274       N  0.68994139  0.30831098  0.48526544    -0.05930
N1275       N  0.67813427  0.33990644  0.49065959    -0.60240
N1276       N  0.68996627  0.23784499  0.93378167    -0.04920
N1277       N  0.67110457  0.22509592  0.90968212    -0.57430
Mn1278     Mn  0.73418477  0.29884855  0.95777708     1.20190
Mn1279     Mn  0.68619750  0.22507101  0.99183043     1.10090
Cl1280     Cl  0.74271397  0.24449706  0.00082231    -0.85400
C1281       C  0.67764250  0.24598759  0.87960840     0.96930
C1282       C  0.65101088  0.33169218  0.50861989     0.96730
N1283       N  0.97091534  0.30707516  0.80553689    -0.05550
N1284       N  0.96713716  0.33947600  0.81705309    -0.57670
N1285       N  0.96551891  0.21923709  0.83420959    -0.05230
N1286       N  0.96068333  0.19110407  0.85742986    -0.59800
N1287       N  0.99246889  0.23554013  0.84060540    -0.04830
N1288       N  0.00621877  0.21908042  0.86796353    -0.57650
N1289       N  0.94374301  0.29183439  0.79845541    -0.04510
N1290       N  0.92102795  0.31375129  0.80471672    -0.60150
C1291       C  0.93600940  0.34337265  0.81594521     0.96620
C1292       C  0.98620519  0.19168649  0.87841265     0.96400
N1293       N  0.94271848  0.17104115  0.73877738    -0.05740
N1294       N  0.92458149  0.14469061  0.72751177    -0.58250
N1295       N  0.91129657  0.24912973  0.73478190    -0.03860
N1296       N  0.88093929  0.25463405  0.73041128    -0.59500
N1297       N  0.92411049  0.24120623  0.70379597    -0.05770
N1298       N  0.90331500  0.24162895  0.67820259    -0.58520
N1299       N  0.93265656  0.17991803  0.77072005    -0.03500
N1300       N  0.90805458  0.15955994  0.78152523    -0.59590
Mn1301     Mn  0.93791175  0.23552306  0.78570487     1.18440
C1302       C  0.90348035  0.13735827  0.75473697     0.98710
C1303       C  0.87654912  0.25050200  0.69468550     0.99370
N1304       N  0.55798469  0.24988596  0.80285847    -0.05790
N1305       N  0.57922845  0.24938369  0.82797752    -0.62100
N1306       N  0.54820919  0.31116354  0.73568111    -0.04590
N1307       N  0.57255281  0.33150408  0.72408540    -0.62770
N1308       N  0.53889560  0.31996154  0.76795670    -0.05290
N1309       N  0.55749967  0.34619149  0.77870781    -0.62360
N1310       N  0.57034571  0.24221514  0.77165623    -0.04190
N1311       N  0.60071617  0.23658023  0.77520825    -0.63050
Mn1312     Mn  0.51432803  0.27851632  0.80495516     1.10660
C1313       C  0.60569622  0.24053399  0.81075728     0.99930
C1314       C  0.57792823  0.35356869  0.75075004     1.00000
N1315       N  0.48965153  0.25445913  0.66606144    -0.05300
N1316       N  0.47641688  0.27044622  0.63806233    -0.60480
N1317       N  0.53750796  0.19895863  0.71150652    -0.04620
N1318       N  0.56017105  0.17618423  0.71106155    -0.57400
N1319       N  0.51094177  0.18312683  0.70335581    -0.05930
N1320       N  0.01533019  0.14928486  0.69613939    -0.60240
N1321       N  0.51646267  0.27081413  0.67271336    -0.04920
N1322       N  0.52183448  0.29845115  0.64907543    -0.57430
Mn1323     Mn  0.96755980  0.21203561  0.70213850     1.20190
Mn1324     Mn  0.54335873  0.25541734  0.72161295     1.10090
Cl1325     Cl  0.99069626  0.24552393  0.75356758    -0.85400
C1326       C  0.49673063  0.29755532  0.62754061     0.96930
C1327       C  0.54618336  0.14538622  0.70140514     0.96730
N1328       N  0.76900461  0.07781703  0.74187282    -0.05550
N1329       N  0.79001201  0.09832146  0.75743803    -0.57670
N1330       N  0.71770748  0.04619035  0.68234030    -0.05230
N1331       N  0.70130220  0.05181612  0.65330908    -0.59800
N1332       N  0.70417514  0.05990318  0.71033198    -0.04830
N1333       N  0.67813278  0.07506876  0.70102306    -0.57650
N1334       N  0.78168294  0.06433876  0.71313283    -0.04510
N1335       N  0.81111508  0.07552958  0.70859239    -0.60150
C1336       C  0.81594679  0.09685429  0.73600949     0.96620
C1337       C  0.67682054  0.06968810  0.66562874     0.96400
N1338       N  0.74059885  0.43904698  0.67789346    -0.05740
N1339       N  0.73988007  0.41244002  0.65587273    -0.58250
N1340       N  0.80410235  0.49056715  0.69259840    -0.03860
N1341       N  0.83196251  0.50082440  0.67945906    -0.59500
N1342       N  0.80442108  0.45835249  0.70880433    -0.05770
N1343       N  0.83311542  0.44579041  0.70683634    -0.58520
N1344       N  0.74239427  0.47042059  0.65961065    -0.03500
N1345       N  0.74318810  0.46529048  0.62463348    -0.59590
Mn1346     Mn  0.76107464  0.01884576  0.68606284     1.18440
C1347       C  0.74092072  0.42900783  0.62277783     0.98710
C1348       C  0.84997947  0.47304972  0.68883909     0.99370
N1349       N  0.67768005  0.03167582  0.78791440    -0.05790
N1350       N  0.64912270  0.04425284  0.79189805    -0.62100
N1351       N  0.74071627  0.02124549  0.83715670    -0.04590
N1352       N  0.74089799  0.02632815  0.87216390    -0.62770
N1353       N  0.74078648  0.05262267  0.81894395    -0.05290
N1354       N  0.74139452  0.07922889  0.84103517    -0.62360
N1355       N  0.67900765  0.49992686  0.80510803    -0.04190
N1356       N  0.65189525  0.48998246  0.82050562    -0.63050
Mn1357     Mn  0.72274552  0.05697812  0.76423771     1.10660
C1358       C  0.63327690  0.01739419  0.81177918     0.99930
C1359       C  0.74201439  0.06265935  0.87411668     1.00000
N1360       N  0.77911709  0.43212581  0.78399870    -0.05300
N1361       N  0.80832073  0.42405618  0.78838636    -0.60680
N1362       N  0.70172046  0.42647823  0.78524286    -0.04620
N1363       N  0.67254519  0.41503687  0.79145752    -0.57400
N1364       N  0.71315726  0.41333169  0.75571001    -0.05930
N1365       N  0.69152939  0.39269149  0.74129490    -0.60240
N1366       N  0.76735836  0.44612015  0.81286044    -0.04920
N1367       N  0.78844100  0.44715446  0.83802193    -0.57430
Mn1368     Mn  0.75898321  0.43408582  0.73202624     1.20190
Mn1369     Mn  0.72270184  0.47233246  0.81116308     1.10090
Cl1370     Cl  0.74123517  0.49557973  0.74834654    -0.85400
C1371       C  0.81366917  0.43372477  0.82166901     0.96930
C1372       C  0.66653126  0.39384358  0.76427727     0.96730
C1373       C  0.87323914  0.12052869  0.74963147    -0.12710
C1374       C  0.84671895  0.11020693  0.74451794    -0.14270
C1375       C  0.60844280  0.37027986  0.75453625    -0.12710
C1376       C  0.63532617  0.38041421  0.75773565    -0.14270
C1377       C  0.75650187  0.39084142  0.56714901    -0.12710
C1378       C  0.74862076  0.40989254  0.59100623    -0.14270
C1379       C  0.73561248  0.08149490  0.90662542    -0.12710
C1380       C  0.72869958  0.09995682  0.93145970    -0.14270
C1381       C  0.63598921  0.24224123  0.82792098    -0.12710
C1382       C  0.65762500  0.24501798  0.84846330    -0.14270
C1383       C  0.84662848  0.24848285  0.67647162    -0.12710
C1384       C  0.82578910  0.24521267  0.65483486    -0.14270
C1385       C  0.87499503  0.10555362  0.98688469    -0.12710
C1386       C  0.85751195  0.13063198  0.98673705    -0.14270
C1387       C  0.61185225  0.38455394  0.51752060    -0.12710
C1388       C  0.62902480  0.35918727  0.51676185    -0.14270
C1389       C  0.60260734  0.51936969  0.82862285    -0.12710
C1390       C  0.58060311  0.51576438  0.84981514    -0.14270
C1391       C  0.90482656  0.47531906  0.65556683    -0.12710
C1392       C  0.88168037  0.47156432  0.67494278    -0.14270
C1393       C  0.49022775  0.32416510  0.59908903    -0.12710
C1394       C  0.98284309  0.34559328  0.57535280    -0.14270
C1395       C  0.00176864  0.14353868  0.92991696    -0.12710
C1396       C  0.99342425  0.16473549  0.90635385    -0.14270
C1397       C  0.62955323  0.10166774  0.65710252    -0.15870
C1398       C  0.65289272  0.08369071  0.64291075    -0.31040
H1399       H  0.62764255  0.10461999  0.68595032     0.13160
H1400       H  0.65483171  0.08051724  0.61412776     0.13730
C1401       C  0.58189808  0.13729211  0.65394625    -0.15870
C1402       C  0.56429209  0.12130454  0.68085857    -0.31040
H1403       H  0.57919817  0.16600155  0.64752185     0.13160
H1404       H  0.56489656  0.09290484  0.68875273     0.13730
C1405       C  0.62366854  0.14749826  0.60899300    -0.15870
C1406       C  0.64186972  0.17298717  0.62325167    -0.31040
H1407       H  0.62354118  0.14556057  0.57996366     0.13160
H1408       H  0.64412762  0.17378723  0.65217090     0.13730
C1409       C  0.59062563  0.09109845  0.61131477    -0.15870
C1410       C  0.58124816  0.05855762  0.62592203    -0.31040
H1411       H  0.58601507  0.09800600  0.58319244     0.13160
H1412       H  0.58467061  0.05036349  0.65388717     0.13730
C1413       C  0.90349159  0.43468453  0.88110214    -0.15870
C1414       C  0.88963267  0.40392662  0.89520730    -0.31040
H1415       H  0.90482038  0.44152071  0.85255406     0.13160
H1416       H  0.89225292  0.39644762  0.92360493     0.13730
C1417       C  0.86097445  0.34449600  0.89348719    -0.15870
C1418       C  0.84191532  0.32012985  0.87867078    -0.31040
H1419       H  0.86591767  0.34135851  0.92196118     0.13160
H1420       H  0.83531840  0.32418673  0.85082677     0.13730
C1421       C  0.84191665  0.39840237  0.86269792    -0.15870
C1422       C  0.84240879  0.42563984  0.83818175    -0.31040
H1423       H  0.81940987  0.38826984  0.87408626     0.13160
H1424       H  0.86351115  0.43370259  0.82293539     0.13730
C1425       C  0.88905725  0.36865646  0.83933778    -0.15870
C1426       C  0.92034798  0.36926845  0.83702707    -0.31040
H1427       H  0.87600282  0.35422757  0.81966096     0.13160
H1428       H  0.93472425  0.38273591  0.85605041     0.13730
C1429       C  0.87102252  0.87911098  0.37256493    -0.01920
C1430       C  0.60625001  0.61903021  0.13296240    -0.01920
N1431       N  0.93731124  0.55517211  0.51723468    -0.05550
N1432       N  0.92425967  0.58652758  0.51182890    -0.57670
N1433       N  0.93835157  0.97962458  0.06974635    -0.05230
N1434       N  0.92021368  0.96254227  0.09459607    -0.59800
N1435       N  0.95395319  0.50654230  0.08304527    -0.04830
N1436       N  0.94612890  0.50864845  0.11755029    -0.57650
N1437       N  0.92031656  0.52910741  0.50435259    -0.04510
N1438       N  0.89474500  0.54252946  0.48991925    -0.60150
C1439       C  0.89795342  0.57853436  0.49455455     0.96620
C1440       C  0.92560558  0.48030932  0.12445926     0.96400
N1441       N  0.98142887  0.90877002  0.00231651    -0.05740
N1442       N  0.99356597  0.87972924  0.01775088    -0.58250
N1443       N  0.93732474  0.96628216  0.45505646    -0.03860
N1444       N  0.91228547  0.96497913  0.43553292    -0.59500
N1445       N  0.96199349  0.95691016  0.43653700    -0.05770
N1446       N  0.95417060  0.94904940  0.40394408    -0.58520
N1447       N  0.95695634  0.91846544  0.02122500    -0.03500
N1448       N  0.95226332  0.89607630  0.04990712    -0.59590
Mn1449     Mn  0.93718414  0.97266769  0.01220327     1.18440
C1450       C  0.97499955  0.87181975  0.04703494     0.98710
C1451       C  0.92323865  0.95468862  0.40370458     0.99370
N1452       N  0.02429480  0.53367526  0.07029853    -0.05790
N1453       N  0.03151492  0.54139099  0.10310322    -0.62100
N1454       N  0.52949036  0.57226019  0.48511057    -0.04590
N1455       N  0.53354963  0.59417917  0.45593792    -0.62770
N1456       N  0.00502452  0.58186718  0.50410241    -0.05290
N1457       N  0.99236171  0.61038486  0.48828728    -0.62360
N1458       N  0.54926461  0.52455318  0.05220749    -0.04190
N1459       N  0.57395534  0.52605726  0.07241052    -0.63050
Mn1460     Mn  0.98059352  0.54510183  0.04478440     1.10660
C1461       C  0.56245467  0.53616091  0.10420288     0.99930
C1462       C  0.01048489  0.61807088  0.45862894     1.00000
N1463       N  0.53264333  0.98420654  0.42352797    -0.05300
N1464       N  0.54002250  0.98226452  0.38888004    -0.60680
N1465       N  0.56639801  0.96135486  0.00210401    -0.04620
N1466       N  0.59215540  0.94769639  0.01591077    -0.57400
N1467       N  0.54923433  0.93545791  0.98912528    -0.05930
N1468       N  0.56230504  0.90405076  0.99392779    -0.60240
N1469       N  0.54857260  0.01096377  0.43672977    -0.04920
N1470       N  0.56651694  0.52800254  0.41158653    -0.57430
Mn1471     Mn  0.50598618  0.94556946  0.46179512     1.20190
Mn1472     Mn  0.54958906  0.51805294  0.49444405     1.10090
Cl1473     Cl  0.99335742  0.99532954  0.50332036    -0.85400
C1474       C  0.56072019  0.01039864  0.38179788     0.96930
C1475       C  0.58883040  0.91174556  0.01087596     0.96730
N1476       N  0.79553071  0.68074475  0.51648190    -0.05550
N1477       N  0.80767920  0.64926575  0.51142968    -0.57670
N1478       N  0.79511088  0.75115196  0.06827640    -0.05230
N1479       N  0.81346847  0.76423723  0.09273818    -0.59800
N1480       N  0.77783962  0.72364367  0.08201065    -0.04830
N1481       N  0.78475639  0.71730804  0.11642383    -0.57650
N1482       N  0.81403654  0.70731801  0.50317900    -0.04510
N1483       N  0.83969622  0.69406468  0.48888712    -0.60150
C1484       C  0.83499888  0.65772771  0.49398993     0.96620
C1485       C  0.80663283  0.74347122  0.12286669     0.96400
N1486       N  0.75800212  0.83110204  0.99777876    -0.05740
N1487       N  0.74683724  0.86034802  0.01133616    -0.58250
N1488       N  0.80310859  0.77701396  0.45214823    -0.03860
N1489       N  0.82967951  0.78245094  0.43383231    -0.59500
N1490       N  0.77956849  0.78841112  0.43290856    -0.05770
N1491       N  0.78980120  0.80144949  0.40107284    -0.58520
N1492       N  0.78091243  0.81864993  0.01750271    -0.03500
N1493       N  0.78549849  0.83936342  0.04486275    -0.59590
Mn1494     Mn  0.79918377  0.76406672  0.01000555     1.18440
C1495       C  0.76438660  0.86555486  0.04028711     0.98710
C1496       C  0.82096881  0.79720010  0.40191470     0.99370
N1497       N  0.70559626  0.69994445  0.06872076    -0.05790
N1498       N  0.69506135  0.68768165  0.10075971    -0.62100
N1499       N  0.70433014  0.67046742  0.48377878    -0.04590
N1500       N  0.69976981  0.65052787  0.45582576    -0.62770
N1501       N  0.72746793  0.65776501  0.50300093    -0.05290
N1502       N  0.73882374  0.62908610  0.48837832    -0.62360
N1503       N  0.68241402  0.71224425  0.04948013    -0.04190
N1504       N  0.65585119  0.70851808  0.06793187    -0.63050
Mn1505     Mn  0.75112570  0.68981958  0.04375913     1.10660
C1506       C  0.66412394  0.69373518  0.09994365     0.99930
C1507       C  0.72112387  0.62449873  0.45933447     1.00000
N1508       N  0.70724050  0.76515589  0.41992154    -0.05300
N1509       N  0.69979141  0.77184770  0.38575352    -0.60680
N1510       N  0.67145063  0.78189033  0.99888798    -0.04620
N1511       N  0.64613071  0.79538147  0.01376251    -0.57400
N1512       N  0.68995175  0.80831300  0.98527082    -0.05930
N1513       N  0.67815221  0.83991354  0.99066007    -0.60240
N1514       N  0.68994785  0.73778613  0.43382405    -0.04920
N1515       N  0.67108568  0.72504069  0.40972275    -0.57430
Mn1516     Mn  0.73417173  0.79878302  0.45782223     1.20190
Mn1517     Mn  0.68617490  0.72501550  0.49187362     1.10090
Cl1518     Cl  0.74269236  0.74443388  0.50087233    -0.85400
C1519       C  0.67762896  0.74593062  0.37964892     0.96930
C1520       C  0.65103000  0.83171043  0.00862720     0.96730
N1521       N  0.97092349  0.80702971  0.30559583    -0.05550
N1522       N  0.96714051  0.83941563  0.31714755    -0.57670
N1523       N  0.96553960  0.71918004  0.33420760    -0.05230
N1524       N  0.96070096  0.69104452  0.35742415    -0.59800
N1525       N  0.99249002  0.73547989  0.34060748    -0.04830
N1526       N  0.00623772  0.71901530  0.36796448    -0.57650
N1527       N  0.94375268  0.79179021  0.29850521    -0.04510
N1528       N  0.92103414  0.81369334  0.30479358    -0.60150
C1529       C  0.93601152  0.84330446  0.31604913     0.96620
C1530       C  0.98622224  0.69162121  0.37840818     0.96400
N1531       N  0.94272944  0.67104790  0.23874075    -0.05740
N1532       N  0.92458991  0.64470532  0.22746339    -0.58250
N1533       N  0.91129761  0.74912642  0.23480453    -0.03860
N1534       N  0.88093740  0.75462152  0.23044333    -0.59500
N1535       N  0.92410992  0.74123048  0.20380881    -0.05770
N1536       N  0.90331124  0.74166383  0.17821891    -0.58520
N1537       N  0.93267697  0.67989956  0.27069562    -0.03500
N1538       N  0.90808051  0.65953160  0.28149811    -0.59590
Mn1539     Mn  0.93792530  0.73549150  0.28571556     1.18440
C1540       C  0.90349844  0.63735088  0.25469461     0.98710
C1541       C  0.87654416  0.75051413  0.19471355     0.99370
N1542       N  0.55798397  0.74987042  0.30287063    -0.05790
N1543       N  0.57922327  0.74936080  0.32799468    -0.62100
N1544       N  0.54821677  0.81114676  0.23568678    -0.04590
N1545       N  0.57255902  0.83148720  0.22408737    -0.62770
N1546       N  0.53890369  0.81994757  0.26796146    -0.05290
N1547       N  0.55750794  0.84617924  0.27870924    -0.62360
N1548       N  0.57034764  0.74219680  0.27167078    -0.04190
N1549       N  0.60071600  0.73655216  0.27522946    -0.63050
Mn1550     Mn  0.51432975  0.77850495  0.30495946     1.10660
C1551       C  0.60569143  0.74050342  0.31078014     0.99930
C1552       C  0.57793495  0.85355470  0.25074913     1.00000
N1553       N  0.48966348  0.75444815  0.16606326    -0.05300
N1554       N  0.47643046  0.77044111  0.13806603    -0.60480
N1555       N  0.53751102  0.69894247  0.21152079    -0.04620
N1556       N  0.56017161  0.67616447  0.21108654    -0.57400
N1557       N  0.51094547  0.68311352  0.20336377    -0.05930
N1558       N  0.01533623  0.64932808  0.19609298    -0.60240
N1559       N  0.51647492  0.77080035  0.17271930    -0.04920
N1560       N  0.52184831  0.79844130  0.14908629    -0.57430
Mn1561     Mn  0.96756143  0.71206953  0.20212213     1.20190
Mn1562     Mn  0.54336552  0.75540071  0.22162277     1.10090
Cl1563     Cl  0.99070268  0.74552430  0.25357082    -0.85400
C1564       C  0.49674545  0.79755087  0.12754968     0.96930
C1565       C  0.54618380  0.64536745  0.20142791     0.96730
N1566       N  0.76901506  0.57781777  0.24187601    -0.05550
N1567       N  0.79002680  0.59832253  0.25743438    -0.57670
N1568       N  0.71770973  0.54619785  0.18234964    -0.05230
N1569       N  0.70130389  0.55182636  0.15331955    -0.59800
N1570       N  0.70418007  0.55991094  0.21034288    -0.04830
N1571       N  0.67813837  0.57507962  0.20103564    -0.57650
N1572       N  0.78168698  0.56433971  0.21313225    -0.04510
N1573       N  0.81111788  0.57553087  0.20858184    -0.60150
C1574       C  0.81595654  0.59685540  0.23599690     0.96620
C1575       C  0.67682436  0.56970022  0.16564087     0.96400
N1576       N  0.74060158  0.93905791  0.17785950    -0.05740
N1577       N  0.73988485  0.91245270  0.15583703    -0.58250
N1578       N  0.80410457  0.99057861  0.19256702    -0.03860
N1579       N  0.83196502  0.00084405  0.17943491    -0.59500
N1580       N  0.80442626  0.95836275  0.20876995    -0.05770
N1581       N  0.83312369  0.94580816  0.20680713    -0.58520
N1582       N  0.74239711  0.97043264  0.15957896    -0.03500
N1583       N  0.74319409  0.96530489  0.12460132    -0.59590
Mn1584     Mn  0.76107436  0.51885002  0.18606479     1.18440
C1585       C  0.74092779  0.92902245  0.12274339     0.98710
C1586       C  0.84998569  0.97307330  0.18881587     0.99370
N1587       N  0.67769071  0.53167824  0.28792835    -0.05790
N1588       N  0.64913209  0.54425233  0.29191116    -0.62100
N1589       N  0.74073222  0.52124200  0.33716266    -0.04590
N1590       N  0.74091207  0.52631906  0.37217089    -0.62770
N1591       N  0.74080009  0.55262152  0.31895424    -0.05290
N1592       N  0.74140399  0.57922388  0.34105058    -0.62360
N1593       N  0.67901762  0.99991787  0.30508944    -0.04190
N1594       N  0.65190761  0.98997051  0.32049138    -0.63050
Mn1595     Mn  0.72275558  0.55698127  0.26424779     1.10660
C1596       C  0.63328742  0.51739173  0.31179116     0.99930
C1597       C  0.74202433  0.56264923  0.37413013     1.00000
N1598       N  0.77912348  0.93211592  0.28395988    -0.05300
N1599       N  0.80831964  0.92401656  0.28835283    -0.60680
N1600       N  0.70172965  0.92647397  0.28521191    -0.04620
N1601       N  0.67255593  0.91502993  0.29143182    -0.57400
N1602       N  0.71316280  0.91333188  0.25567492    -0.05930
N1603       N  0.69153337  0.89269171  0.24126212    -0.60240
N1604       N  0.76736705  0.94610433  0.31282579    -0.04920
N1605       N  0.78844281  0.94710340  0.33799682    -0.57430
Mn1606     Mn  0.75898852  0.93408973  0.23198951     1.20190
Mn1607     Mn  0.72271294  0.97232400  0.31113545     1.10090
Cl1608     Cl  0.74124069  0.99557982  0.24831901    -0.85400
C1609       C  0.81366478  0.93365812  0.32164508     0.96930
C1610       C  0.66653860  0.89383962  0.26425048     0.96730
C1611       C  0.87325538  0.62052501  0.24959298    -0.12710
C1612       C  0.84673180  0.61020726  0.24449261    -0.14270
C1613       C  0.60844888  0.87026987  0.25452836    -0.12710
C1614       C  0.63533291  0.88040677  0.25771734    -0.14270
C1615       C  0.75652011  0.89085299  0.06712254    -0.12710
C1616       C  0.74863450  0.90990866  0.09097361    -0.14270
C1617       C  0.73561584  0.58147593  0.40664319    -0.12710
C1618       C  0.72869564  0.59992498  0.43148517    -0.14270
C1619       C  0.63598147  0.74219774  0.32795238    -0.12710
C1620       C  0.65761405  0.74496578  0.34850072    -0.14270
C1621       C  0.84662189  0.74849218  0.17650188    -0.12710
C1622       C  0.82578463  0.74522072  0.15486191    -0.14270
C1623       C  0.87496831  0.60548105  0.48693562    -0.12710
C1624       C  0.85748207  0.63055633  0.48679759    -0.14270
C1625       C  0.61188126  0.88458256  0.01753003    -0.12710
C1626       C  0.62905146  0.85921366  0.01676970    -0.14270
C1627       C  0.60261817  0.01935197  0.32862031    -0.12710
C1628       C  0.58061522  0.01574213  0.34981465    -0.14270
C1629       C  0.90483798  0.97536702  0.15555570    -0.12710
C1630       C  0.88169049  0.97160014  0.17492849    -0.14270
C1631       C  0.49024387  0.82416754  0.09910329    -0.12710
C1632       C  0.98283566  0.84566309  0.07536526    -0.14270
C1633       C  0.00176937  0.64348066  0.42992742    -0.12710
C1634       C  0.99343242  0.66467338  0.40635645    -0.14270
C1635       C  0.62955375  0.60167372  0.15711581    -0.15870
C1636       C  0.65289638  0.58370307  0.14292332    -0.31040
H1637       H  0.62764130  0.60462161  0.18596419     0.13160
H1638       H  0.65483710  0.58053322  0.11413983     0.13730
C1639       C  0.58189183  0.63728588  0.15396089    -0.15870
C1640       C  0.56429446  0.62129187  0.18087745    -0.31040
H1641       H  0.57918138  0.66599339  0.14753520     0.13160
H1642       H  0.56491318  0.59289475  0.18877775     0.13730
C1643       C  0.62366488  0.64751097  0.10901276    -0.15870
C1644       C  0.64186052  0.67300187  0.12327662    -0.31040
H1645       H  0.62354131  0.64557682  0.07998289     0.13160
H1646       H  0.64411500  0.67379902  0.15219652     0.13730
C1647       C  0.59063152  0.59110412  0.11132193    -0.15870
C1648       C  0.58124561  0.55856530  0.12592637    -0.31040
H1649       H  0.58602929  0.59801245  0.08319765     0.13160
H1650       H  0.58466151  0.55036954  0.15389225     0.13730
C1651       C  0.90345044  0.93465006  0.38112020    -0.15870
C1652       C  0.88958397  0.90390581  0.39525011    -0.31040
H1653       H  0.90479162  0.94145364  0.35256648     0.13160
H1654       H  0.89219162  0.89645407  0.42365545     0.13730
C1655       C  0.86093891  0.84446035  0.39355896    -0.15870
C1656       C  0.84190434  0.82007157  0.37873948    -0.31040
H1657       H  0.86586193  0.84134652  0.42203966     0.13160
H1658       H  0.83532544  0.82410634  0.35088712     0.13730
C1659       C  0.84189096  0.89833871  0.36270675    -0.15870
C1660       C  0.84239784  0.92555047  0.33816111    -0.31040
H1661       H  0.81937937  0.88822140  0.37409397     0.13160
H1662       H  0.86350612  0.93359015  0.32291513     0.13730
C1663       C  0.88905165  0.86858528  0.33941839    -0.15870
C1664       C  0.92034306  0.86918200  0.33714492    -0.31040
H1665       H  0.87600861  0.85416299  0.31972719     0.13160
H1666       H  0.93470707  0.88263673  0.35618924     0.13730
C1667       C  0.87099896  0.87904492  0.87257038    -0.01920
C1668       C  0.60627823  0.61895343  0.63290994    -0.01920
N1669       N  0.93733230  0.55517610  0.01726953    -0.05550
N1670       N  0.92426821  0.58652543  0.01187122    -0.57670
N1671       N  0.93835447  0.97958654  0.56979076    -0.05230
N1672       N  0.92021114  0.96251009  0.59463904    -0.59800
N1673       N  0.95393285  0.50652767  0.58300564    -0.04830
N1674       N  0.94612067  0.50862228  0.61751569    -0.57650
N1675       N  0.92034129  0.52910471  0.00439413    -0.04510
N1676       N  0.89476037  0.54251486  0.98997293    -0.60150
C1677       C  0.89795839  0.57852031  0.99460785     0.96620
C1678       C  0.92559624  0.48028371  0.62442403     0.96400
N1679       N  0.98144303  0.90873546  0.50235706    -0.05740
N1680       N  0.99357548  0.87968816  0.51778270    -0.58250
N1681       N  0.93729795  0.96630534  0.95501338    -0.03860
N1682       N  0.91225111  0.96496598  0.93550389    -0.59500
N1683       N  0.96196504  0.95693226  0.93649115    -0.05770
N1684       N  0.95413418  0.94903897  0.90391007    -0.58520
N1685       N  0.95696956  0.91842776  0.52126527    -0.03500
N1686       N  0.95227089  0.89602967  0.54993954    -0.59590
Mn1687     Mn  0.93719624  0.97262912  0.51224721     1.18440
C1688       C  0.97500514  0.87177146  0.54706132     0.98710
C1689       C  0.92319903  0.95465667  0.90368024     0.99370
N1690       N  0.02427770  0.53365814  0.57025008    -0.05790
N1691       N  0.03150612  0.54137598  0.60305193    -0.62100
N1692       N  0.52950909  0.57226841  0.98517813    -0.04590
N1693       N  0.53356384  0.59418158  0.95600114    -0.62770
N1694       N  0.00504897  0.58187600  0.00414116    -0.05290
N1695       N  0.99238529  0.61038852  0.98831751    -0.62360
N1696       N  0.54924251  0.52452482  0.55212927    -0.04190
N1697       N  0.57394017  0.52601126  0.57232297    -0.63050
Mn1698     Mn  0.98057244  0.54508932  0.54474498     1.10660
C1699       C  0.56245398  0.53611589  0.60412133     0.99930
C1700       C  0.01051345  0.61807204  0.95866269     1.00000
N1701       N  0.53257749  0.98422788  0.92346510    -0.05300
N1702       N  0.53995397  0.98227619  0.88881763    -0.60680
N1703       N  0.56644911  0.96133940  0.50218205    -0.04620
N1704       N  0.59220016  0.94768616  0.51600990    -0.57400
N1705       N  0.54929803  0.93543896  0.48919054    -0.05930
N1706       N  0.56236992  0.90403468  0.49400547    -0.60240
N1707       N  0.54851449  0.01098338  0.93665981    -0.04920
N1708       N  0.56656801  0.52803472  0.91166152    -0.57430
Mn1709     Mn  0.50591669  0.94560495  0.96174333     1.20190
Mn1710     Mn  0.54963094  0.51807655  0.99452241     1.10090
Cl1711     Cl  0.99334618  0.99536281  0.00326558    -0.85400
C1712       C  0.56065788  0.01040313  0.88172872     0.96930
C1713       C  0.58888281  0.91173481  0.51097420     0.96730
N1714       N  0.79549957  0.68071265  0.01652117    -0.05550
N1715       N  0.80764914  0.64923097  0.01148232    -0.57670
N1716       N  0.79513971  0.75116775  0.56825628    -0.05230
N1717       N  0.81350012  0.76424618  0.59271940    -0.59800
N1718       N  0.77787241  0.72365365  0.58198530    -0.04830
N1719       N  0.78479465  0.71730731  0.61639513    -0.57650
N1720       N  0.81400900  0.70728154  0.00321606    -0.04510
N1721       N  0.83967127  0.69402360  0.98893613    -0.60150
C1722       C  0.83497303  0.65768804  0.99404819     0.96620
C1723       C  0.80667000  0.74346958  0.62284279     0.96400
N1724       N  0.75801099  0.83112752  0.49777978    -0.05740
N1725       N  0.74684457  0.86037166  0.51133940    -0.58250
N1726       N  0.80309595  0.77696446  0.95216698    -0.03860
N1727       N  0.82966937  0.78238556  0.93385297    -0.59500
N1728       N  0.77956065  0.78836464  0.93292141    -0.05770
N1729       N  0.78979914  0.80138880  0.90108304    -0.58520
N1730       N  0.78092431  0.81867766  0.51750019    -0.03500
N1731       N  0.78551051  0.83939103  0.54486088    -0.59590
Mn1732     Mn  0.79920441  0.76409929  0.50998639     1.18440
C1733       C  0.76439528  0.86558016  0.54028880     0.98710
C1734       C  0.82096517  0.79712782  0.90192991     0.99370
N1735       N  0.70563003  0.69993279  0.56870360    -0.05790
N1736       N  0.69509764  0.68764248  0.60073496    -0.62100
N1737       N  0.70429680  0.67045599  0.98380527    -0.04590
N1738       N  0.69974134  0.65052258  0.95584691    -0.62770
N1739       N  0.72743222  0.65775059  0.00302948    -0.05290
N1740       N  0.73879101  0.62907553  0.98840184    -0.62360
N1741       N  0.68244301  0.71222784  0.54946771    -0.04190
N1742       N  0.65587954  0.70847124  0.56791560    -0.63050
Mn1743     Mn  0.75116005  0.68983297  0.54373095     1.10660
C1744       C  0.66415652  0.69367465  0.59991999     0.99930
C1745       C  0.72109528  0.62449379  0.95935320     1.00000
N1746       N  0.70723437  0.76512135  0.91992729    -0.05300
N1747       N  0.69979759  0.77179656  0.88575308    -0.60680
N1748       N  0.67147239  0.78188955  0.49890303    -0.04620
N1749       N  0.64616352  0.79537263  0.51381007    -0.57400
N1750       N  0.68996708  0.80831870  0.48528701    -0.05930
N1751       N  0.67817447  0.83991534  0.49070821    -0.60240
N1752       N  0.68993580  0.73775938  0.93383536    -0.04920
N1753       N  0.67108179  0.72500200  0.90973315    -0.57430
Mn1754     Mn  0.73416271  0.79875606  0.95782303     1.20190
Mn1755     Mn  0.68615038  0.72500991  0.99188438     1.10090
Cl1756     Cl  0.74267003  0.74441457  0.00088756    -0.85400
C1757       C  0.67763647  0.74587666  0.87965272     0.96930
C1758       C  0.65106369  0.83170296  0.50869420     0.96730
N1759       N  0.97093189  0.80698217  0.80559661    -0.05550
N1760       N  0.96713966  0.83935944  0.81716677    -0.57670
N1761       N  0.96556696  0.71913546  0.83420895    -0.05230
N1762       N  0.96073095  0.69100450  0.85743147    -0.59800
N1763       N  0.99251489  0.73544203  0.84060678    -0.04830
N1764       N  0.00626370  0.71898683  0.86796812    -0.57650
N1765       N  0.94376432  0.79173534  0.79850506    -0.04510
N1766       N  0.92103902  0.81362483  0.80481062    -0.60150
C1767       C  0.93600855  0.84323579  0.81607735     0.96620
C1768       C  0.98625134  0.69159135  0.87841644     0.96400
N1769       N  0.94276617  0.67098373  0.73874866    -0.05740
N1770       N  0.92462649  0.64463995  0.72747350    -0.58250
N1771       N  0.91132677  0.74906225  0.73479910    -0.03860
N1772       N  0.88096969  0.75457147  0.73043090    -0.59500
N1773       N  0.92414079  0.74115950  0.70380665    -0.05770
N1774       N  0.90334684  0.74160111  0.67821171    -0.58520
N1775       N  0.93271192  0.67983972  0.77070141    -0.03500
N1776       N  0.90811531  0.65947257  0.78150488    -0.59590
Mn1777     Mn  0.93795128  0.73543521  0.78571438     1.18440
C1778       C  0.90353349  0.63728892  0.75470402     0.98710
C1779       C  0.87658077  0.75046417  0.69470014     0.99370
N1780       N  0.55800134  0.74978138  0.80287578    -0.05790
N1781       N  0.57924076  0.74927648  0.82799961    -0.62100
N1782       N  0.54824689  0.81104737  0.73569030    -0.04590
N1783       N  0.57258351  0.83139615  0.72408915    -0.62770
N1784       N  0.53892268  0.81985772  0.76795778    -0.05290
N1785       N  0.55751192  0.84610575  0.77869914    -0.62360
N1786       N  0.57036510  0.74209668  0.77167937    -0.04190
N1787       N  0.60073259  0.73645046  0.77523947    -0.63050
Mn1788     Mn  0.51434814  0.77842303  0.80496032     1.10660
C1789       C  0.60570794  0.74041147  0.81078770     0.99930
C1790       C  0.57794187  0.85348024  0.75074197     1.00000
N1791       N  0.48970709  0.75434932  0.66605741    -0.05300
N1792       N  0.47648322  0.77034104  0.63805362    -0.60480
N1793       N  0.53753873  0.69883909  0.71152150    -0.04620
N1794       N  0.56020091  0.67606418  0.71105845    -0.57400
N1795       N  0.51097096  0.68301493  0.70336366    -0.05930
N1796       N  0.01538227  0.64927741  0.69608070    -0.60240
N1797       N  0.51651955  0.77069610  0.67271815    -0.04920
N1798       N  0.52190358  0.79833190  0.64908260    -0.57430
Mn1799     Mn  0.96759475  0.71200383  0.70212539     1.20190
Mn1800     Mn  0.54339581  0.75529866  0.72162802     1.10090
Cl1801     Cl  0.99072787  0.74547243  0.75356950    -0.85400
C1802       C  0.49680588  0.79744365  0.62753896     0.96930
C1803       C  0.54621061  0.64527439  0.70138448     0.96730
N1804       N  0.76903687  0.57779636  0.74187290    -0.05550
N1805       N  0.79005129  0.59829771  0.75743162    -0.57670
N1806       N  0.71773747  0.54615651  0.68234601    -0.05230
N1807       N  0.70133275  0.55176261  0.65331164    -0.59800
N1808       N  0.70420304  0.55988195  0.71032942    -0.04830
N1809       N  0.67815817  0.57503678  0.70101029    -0.57650
N1810       N  0.78171048  0.56430783  0.71313537    -0.04510
N1811       N  0.81114440  0.57548860  0.70858975    -0.60150
C1812       C  0.81598404  0.59681758  0.73600074     0.96620
C1813       C  0.67684792  0.56963569  0.66561917     0.96400
N1814       N  0.74057661  0.93908481  0.67785644    -0.05740
N1815       N  0.73986730  0.91248143  0.65583157    -0.58250
N1816       N  0.80407860  0.99060275  0.69257734    -0.03860
N1817       N  0.83194146  0.00086652  0.67945081    -0.59500
N1818       N  0.80439661  0.95838475  0.70877650    -0.05770
N1819       N  0.83309253  0.94582718  0.70681748    -0.58520
N1820       N  0.74237564  0.97046108  0.65957849    -0.03500
N1821       N  0.74318353  0.96533518  0.62460013    -0.59590
Mn1822     Mn  0.76109937  0.51881046  0.68607934     1.18440
C1823       C  0.74091969  0.92905258  0.62273882     0.98710
C1824       C  0.84995833  0.97309191  0.68883241     0.99370
N1825       N  0.67769990  0.53168296  0.78792277    -0.05790
N1826       N  0.64914754  0.54427055  0.79191939    -0.62100
N1827       N  0.74072804  0.52125542  0.83717081    -0.04590
N1828       N  0.74090042  0.52633690  0.87217806    -0.62770
N1829       N  0.74080088  0.55263210  0.81895698    -0.05290
N1830       N  0.74139832  0.57923788  0.84105027    -0.62360
N1831       N  0.67899099  0.99991929  0.80509770    -0.04190
N1832       N  0.65187543  0.98996403  0.82048187    -0.63050
Mn1833     Mn  0.72276984  0.55697424  0.76424136     1.10660
C1834       C  0.63330125  0.51741826  0.81180947     0.99930
C1835       C  0.74201151  0.56266701  0.87413297     1.00000
N1836       N  0.77909395  0.93211409  0.78395720    -0.05300
N1837       N  0.80828239  0.92398344  0.78835291    -0.60680
N1838       N  0.70170353  0.92647824  0.78520843    -0.04620
N1839       N  0.67253234  0.91502416  0.79142867    -0.57400
N1840       N  0.71313866  0.91334268  0.75566905    -0.05930
N1841       N  0.69151497  0.89269596  0.74125574    -0.60240
N1842       N  0.76734158  0.94609600  0.81282867    -0.04920
N1843       N  0.78841303  0.94705856  0.83800757    -0.57430
Mn1844     Mn  0.75896085  0.93410715  0.73198726     1.20190
Mn1845     Mn  0.72268721  0.97232427  0.81114226     1.10090
Cl1846     Cl  0.74121418  0.99559256  0.74832684    -0.85400
C1847       C  0.81362746  0.93359632  0.82165421     0.96930
C1848       C  0.66652050  0.89383405  0.76424503     0.96730
C1849       C  0.87328788  0.62046913  0.74960096    -0.12710
C1850       C  0.84676179  0.61015993  0.74450005    -0.14270
C1851       C  0.60844401  0.87022292  0.75452098    -0.12710
C1852       C  0.63532097  0.88038273  0.75771357    -0.14270
C1853       C  0.75652836  0.89088015  0.56712388    -0.12710
C1854       C  0.74863740  0.90993889  0.59097104    -0.14270
C1855       C  0.73559836  0.58149443  0.90664507    -0.12710
C1856       C  0.72867461  0.59993306  0.93149421    -0.14270
C1857       C  0.63599835  0.74211651  0.82795467    -0.12710
C1858       C  0.65763053  0.74489740  0.84850007    -0.14270
C1859       C  0.84666186  0.74846288  0.67647974    -0.12710
C1860       C  0.82582571  0.74520705  0.65483591    -0.14270
C1861       C  0.87495836  0.60545330  0.98700306    -0.12710
C1862       C  0.85746005  0.63051720  0.98686730    -0.14270
C1863       C  0.61193151  0.88457535  0.51764243    -0.12710
C1864       C  0.62909492  0.85920244  0.51687178    -0.14270
C1865       C  0.60257353  0.01933289  0.82857209    -0.12710
C1866       C  0.58055934  0.01572865  0.84975042    -0.14270
C1867       C  0.90481529  0.97536169  0.65558481    -0.12710
C1868       C  0.88166314  0.97161120  0.67495031    -0.14270
C1869       C  0.49031208  0.82406357  0.59909518    -0.12710
C1870       C  0.98283844  0.84560669  0.57538310    -0.14270
C1871       C  0.00179867  0.64347152  0.92995297    -0.12710
C1872       C  0.99346197  0.66465439  0.90637381    -0.14270
C1873       C  0.62957165  0.60158911  0.65707138    -0.15870
C1874       C  0.65291975  0.58362014  0.64289002    -0.31040
H1875       H  0.62765147  0.60453802  0.68591917     0.13160
H1876       H  0.65486931  0.58044716  0.61410766     0.13730
C1877       C  0.58191616  0.63720671  0.65390713    -0.15870
C1878       C  0.56431578  0.62120624  0.68081822    -0.31040
H1879       H  0.57921030  0.66591659  0.64749190     0.13160
H1880       H  0.56493234  0.59280681  0.68870882     0.13730
C1881       C  0.62370239  0.64743773  0.60897195    -0.15870
C1882       C  0.64189923  0.67292141  0.62324599    -0.31040
H1883       H  0.62358042  0.64551505  0.57994067     0.13160
H1884       H  0.64415285  0.67370772  0.65216680     0.13730
C1885       C  0.59066313  0.59103574  0.61125550    -0.15870
C1886       C  0.58126347  0.55849741  0.62584886    -0.31040
H1887       H  0.58606374  0.59795595  0.58313285     0.13160
H1888       H  0.58467351  0.55029209  0.65381349     0.13730
C1889       C  0.90341366  0.93459861  0.88110757    -0.15870
C1890       C  0.88954672  0.90385993  0.89525083    -0.31040
H1891       H  0.90476580  0.94137871  0.85254979     0.13160
H1892       H  0.89214683  0.89642583  0.92366097     0.13730
C1893       C  0.86092576  0.84439588  0.89357288    -0.15870
C1894       C  0.84190738  0.81998997  0.87875441    -0.31040
H1895       H  0.86583807  0.84129826  0.92205736     0.13160
H1896       H  0.83533929  0.82400847  0.85089680     0.13730
C1897       C  0.84185926  0.89825267  0.86269913    -0.15870
C1898       C  0.84236127  0.92547310  0.83816339    -0.31040
H1899       H  0.81934873  0.88812393  0.87407926     0.13160
H1900       H  0.86346892  0.93352437  0.82292222     0.13730
C1901       C  0.88904030  0.86851863  0.83943215    -0.15870
C1902       C  0.92033262  0.86910106  0.83718314    -0.31040
H1903       H  0.87600429  0.85410264  0.81973055     0.13160
H1904       H  0.93468810  0.88254500  0.85624344     0.13730
loop_ 
_geom_bond_atom_site_label_1 
_geom_bond_atom_site_label_2 
_geom_bond_distance 
_geom_bond_site_symmetry_2 
_ccdc_geom_bond_type 
C1          C224   1.507       .  S
C1          C227   1.516       .  S
C1          C231   1.500       .  S
C1          C235   1.517       .  S
C2          C207   1.496       .  S
C2          C211   1.491       .  S
C2          C215   1.513       .  S
C2          C219   1.501       .  S
N3            N4   1.316       .  A
N3            N9   1.313       .  A
N3         Mn270   2.170       .  S
N4           C11   1.344       .  A
N5            N6   1.317       .  A
N5          N483   1.313       .  A
N5          Mn21   2.175       .  S
N6          C488   1.345       .  A
N7            N8   1.328       .  A
N7          N481   1.313   1_545  A
N7          Mn32   2.233       .  S
N8           C12   1.361   1_545  A
N9           N10   1.330       .  A
N9         Mn735   2.249   1_545  S
N10          C11   1.363       .  A
C11         C195   1.448       .  S
C12         N482   1.345       .  A
C12         C677   1.445       .  S
N13          N19   1.319       .  A
N13          N14   1.322       .  A
N13       Mn1233   2.207   1_554  S
N14          C22   1.348       .  A
N15          N16   1.311       .  A
N15          N17   1.314       .  A
N15        Mn259   2.157       .  S
N16          C23   1.344       .  A
N17          N18   1.313       .  A
N17        Mn995   2.165       .  S
N18          C23   1.347       .  A
N19          N20   1.325       .  A
N19         Mn21   2.222       .  S
N20          C22   1.354       .  A
Mn21        N723   2.249       .  S
Mn21        N253   2.157   1_554  S
Mn21       Cl283   2.531       .  S
C22         C204   1.448       .  S
C23         C223   1.430       .  S
N24          N25   1.313       .  A
N24         N982   1.314       .  A
N24         Mn32   2.161       .  S
N25         C985   1.346       .  A
N26          N27   1.327       .  A
N26         N980   1.319       .  A
N26         Mn44   2.230       .  S
N27         C986   1.355       .  A
N28          N29   1.322       .  A
N28         N978   1.319       .  A
N28        Mn270   2.206       .  S
N29          C34   1.347       .  A
N30          N31   1.313       .  A
N30         N976   1.314       .  A
N30        Mn282   2.175   1_554  S
N31          C33   1.349       .  A
Mn32        N241   2.170       .  S
Mn32        N266   2.206       .  S
Mn32       Cl759   2.540   1_545  S
C33         N977   1.346       .  A
C33         C220   1.436       .  S
C34         N979   1.355       .  A
C34         C205   1.451       .  S
N35          N36   1.328       .  A
N35          N41   1.314       .  A
N35         Mn43   2.235       .  S
N36          C46   1.361       .  A
N37          N38   1.331       .  A
N37          N39   1.314   1_554  A
N37        Mn758   2.255   1_554  S
N38          C47   1.364       .  A
N39          N40   1.316       .  A
N39        Mn281   2.170       .  S
N40          C47   1.343   1_556  A
N41         N518   1.318       .  A
N41        Mn520   2.185       .  S
N42         N517   1.318       .  A
N42         C522   1.347       .  A
Mn43       N1203   2.207   1_455  S
Mn43        N969   2.165   1_455  S
Mn43        N277   2.170       .  S
Mn43       Cl997   2.540   1_455  S
Mn44        N268   2.176       .  S
Mn44        N751   2.255   1_545  S
Mn44        N517   2.185       .  S
Mn44      Cl1473   2.534   1_445  S
Cl45       Mn259   2.531       .  S
Cl45       Mn746   2.540       .  S
Cl45       Mn995   2.540       .  S
Cl45      Mn1472   2.534       .  S
C46         N518   1.347       .  A
C46         C200   1.449       .  S
C47         C197   1.449       .  S
N48          N49   1.317       .  A
N48          N54   1.315       .  A
N48        Mn315   2.176       .  S
N49          C56   1.344       .  A
N50          N52   1.316       .  A
N50          N51   1.321       .  A
N50         Mn66   2.199       .  S
N51          C57   1.348       .  A
N52          N53   1.333       .  A
N52         Mn77   2.260       .  S
N53          C57   1.365       .  A
N54          N55   1.329       .  A
N54        Mn304   2.250       .  S
N55          C56   1.363       .  A
C56         C196   1.448       .  S
C57         C194   1.466       .  S
N58          N64   1.319   1_556  A
N58          N59   1.322   1_556  A
N58        Mn326   2.214       .  S
N59          C67   1.348       .  A
N60          N61   1.316       .  A
N60          N62   1.317       .  A
N60        Mn304   2.183       .  S
N61          C68   1.347       .  A
N62          N63   1.316       .  A
N62         Mn88   2.187       .  S
N63          C68   1.349       .  A
N64          N65   1.326       .  A
N64         Mn66   2.228       .  S
N65          C67   1.356       .  A
Mn66        N292   2.250       .  S
Mn66        N298   2.183   1_554  S
Mn66       Cl328   2.541       .  S
C67         C187   1.451       .  S
C68         C228   1.451       .  S
N69          N70   1.318       .  A
N69          N75   1.316       .  A
N69         Mn77   2.191       .  S
N70          C78   1.351       .  A
N71          N73   1.320       .  A
N71          N72   1.326       .  A
N71         Mn89   2.229       .  S
N72          C79   1.355       .  A
N73          N74   1.325       .  A
N73        Mn315   2.226       .  S
N74          C79   1.351       .  A
N75          N76   1.314       .  A
N75        Mn327   2.173   1_554  S
N76          C78   1.345       .  A
Mn77        N286   2.176       .  S
Mn77        N311   2.226       .  S
Mn77       Cl328   2.553       .  S
C78         C216   1.449       .  S
C79         C190   1.458       .  S
N80          N81   1.332       .  A
N80          N86   1.315       .  A
N80         Mn88   2.252       .  S
N81          C91   1.364       .  A
N82          N83   1.330   1_556  A
N82          N84   1.315       .  A
N82        Mn327   2.253       .  S
N83          C92   1.364       .  A
N84          N85   1.317       .  A
N84        Mn326   2.177       .  S
N85          C92   1.344   1_556  A
N86          N87   1.319       .  A
N86         Mn89   2.189       .  S
N87          C91   1.346       .  A
Mn88        N296   2.214       .  S
Mn88        N322   2.177       .  S
Mn88        Cl90   2.551       .  S
Mn89        N313   2.173       .  S
Mn89        N320   2.253       .  S
Mn89        Cl90   2.538       .  S
Cl90       Mn304   2.541       .  S
Cl90       Mn315   2.554       .  S
C91         C192   1.460       .  S
C92         C198   1.450       .  S
N93          N94   1.315       .  A
N93          N99   1.317       .  A
N93       Mn1074   2.169       .  S
N94         C101   1.346       .  A
N95          N97   1.319       .  A
N95          N96   1.328       .  A
N95        Mn111   2.248       .  S
N96         C102   1.359       .  A
N97          N98   1.320       .  A
N97       Mn1074   2.193       .  S
N98         C102   1.345       .  A
N99         N100   1.313       .  A
N99        Mn111   2.182       .  S
N100        C101   1.349       .  A
C101        C236   1.447       .  S
C102        C206   1.450       .  S
N103        N109   1.318       .  A
N103        N104   1.324       .  A
N103       Mn133   2.218       .  S
N104        C112   1.352       .  A
N105        N106   1.334       .  A
N105        N107   1.318       .  A
N105       Mn111   2.277       .  S
N106        C113   1.365       .  A
N107        N108   1.319       .  A
N107       Mn133   2.183       .  S
N108        C113   1.345       .  A
N109        N110   1.319       .  A
N109       Mn111   2.179       .  S
N110        C112   1.344       .  A
Mn111      Cl135   2.538       .  S
C112        C183   1.442       .  S
C113        C193   1.465       .  S
N114        N115   1.320       .  A
N114        N120   1.315       .  A
N114       Mn122   2.181       .  S
N115        C123   1.347       .  A
N116        N118   1.319       .  A
N116        N117   1.318       .  A
N116       Mn134   2.172       .  S
N117        C124   1.343       .  A
N118        N119   1.326       .  A
N118       Mn122   2.231       .  S
N119        C124   1.354       .  A
N120        N121   1.331       .  A
N120       Mn134   2.255       .  S
N121        C123   1.362       .  A
Mn122      N1045   2.169   1_455  S
Mn122      N1049   2.193   1_455  S
Mn122     Cl1087   2.543   1_455  S
C123        C191   1.460       .  S
C124        C185   1.442       .  S
N125        N126   1.320       .  A
N125        N131   1.317   1_655  A
N125      Mn1085   2.191       .  S
N126        C136   1.346       .  A
N127        N128   1.308       .  A
N127        N129   1.314       .  A
N127       Mn134   2.163       .  S
N128        C137   1.347       .  A
N129       N1082   1.318       .  A
N129      Mn1085   2.175   1_455  S
N130       N1081   1.318       .  A
N130       C1089   1.351       .  A
N131        N132   1.327       .  A
N131       Mn134   2.235       .  S
N132        C136   1.357   1_455  A
Mn133      N1077   2.191       .  S
Mn133      N1081   2.175       .  S
Mn133      Cl135   2.546       .  S
Mn134     Cl1087   2.531   1_455  S
Cl135     Mn1074   2.543       .  S
Cl135     Mn1086   2.531       .  S
C136        C203   1.448       .  S
C137       N1082   1.351       .  A
C137        C212   1.442       .  S
N138        N139   1.326       .  A
N138        N144   1.319       .  A
N138       Mn167   2.229       .  S
N139        C146   1.356       .  A
N140        N142   1.316       .  A
N140        N141   1.314       .  A
N140       Mn156   2.147       .  S
N141        C147   1.343       .  A
N142        N143   1.310       .  A
N142       Mn167   2.176       .  S
N143        C147   1.347       .  A
N144        N145   1.318       .  A
N144       Mn156   2.191       .  S
N145        C146   1.344       .  A
C146        C184   1.442       .  S
C147        C208   1.436       .  S
N148        N154   1.318       .  A
N148        N149   1.320       .  A
N148       Mn178   2.183       .  S
N149        C157   1.347       .  A
N150        N151   1.315       .  A
N150        N152   1.312       .  A
N150       Mn632   2.159       .  S
N151        C158   1.344       .  A
N152        N153   1.329       .  A
N152       Mn178   2.251       .  S
N153        C158   1.362       .  A
N154        N155   1.327       .  A
N154       Mn632   2.236       .  S
N155        C157   1.356       .  A
Mn156       N626   2.159   1_545  S
Mn156       N630   2.236   1_545  S
Mn156      Cl656   2.547   1_545  S
C157        C188   1.451       .  S
C158        C202   1.444       .  S
N159        N160   1.330       .  A
N159        N641   1.316   1_545  A
N159       Mn167   2.258       .  S
N160        C168   1.364       .  A
N161        N163   1.317       .  A
N161        N162   1.328       .  A
N161       Mn655   2.234   1_545  S
N162        C169   1.357       .  A
N163        N164   1.322       .  A
N163       Mn167   2.196       .  S
N164        C169   1.348       .  A
N165        N166   1.315       .  A
N165        N635   1.316       .  A
N165       Mn179   2.171       .  S
N166        C644   1.344       .  A
Mn167      Cl656   2.536   1_545  S
C168        N642   1.344   1_545  A
C168        C675   1.447       .  S
C169        C189   1.457       .  S
N170        N171   1.306       .  A
N170        N176   1.316       .  A
N170       Mn178   2.136       .  S
N171        C181   1.333       .  A
N172        N173   1.318       .  A
N172        N174   1.318       .  A
N172       Mn179   2.186       .  S
N173        C182   1.342       .  A
N174        N175   1.327       .  A
N174       Mn178   2.229       .  S
N175        C182   1.357       .  A
N176        N177   1.318       .  A
N176       Mn179   2.173       .  S
N177        C181   1.350       .  A
Mn178      Cl180   2.534       .  S
Mn179       N637   2.234       .  S
Mn179      Cl180   2.549       .  S
Cl180      Mn632   2.547       .  S
Cl180      Mn643   2.536       .  S
C181        C232   1.421       .  S
C182        C186   1.442       .  S
C183        C184   1.210       .  T
C185        C186   1.210       .  T
C187        C188   1.215       .  T
C189        C190   1.219       .  T
C191        C192   1.221       .  T
C193        C194   1.224       .  T
C195        C196   1.214       .  T
C197        C198   1.215       .  T
C199        C644   1.447       .  S
C199        C200   1.214       .  T
C201        C488   1.445       .  S
C201        C202   1.212       .  T
C203       C1156   1.213       .  T
C204       C1155   1.213       .  T
C205        C206   1.215       .  T
C207        C208   1.334       .  D
C207        H209   1.088       .  S
C208        H210   1.087       .  S
C211        C212   1.340       .  D
C211        H213   1.092       .  S
C212        H214   1.082       .  S
C215        C216   1.349       .  D
C215        H217   1.088       .  S
C216        H218   1.086       .  S
C219        C220   1.345       .  D
C219        H221   1.089       .  S
C220        H222   1.084       .  S
C223        C224   1.347       .  D
C223        H225   1.079       .  S
C224        H226   1.088       .  S
C227        C228   1.350       .  D
C227        H229   1.087       .  S
C228        H230   1.085       .  S
C231        C232   1.325       .  D
C231        H233   1.091       .  S
C232        H234   1.081       .  S
C235        C236   1.339       .  D
C235        H237   1.087       .  S
C236        H238   1.083       .  S
C239        C462   1.507       .  S
C239        C465   1.516       .  S
C239        C469   1.499       .  S
C239        C473   1.517       .  S
C240        C445   1.496       .  S
C240        C449   1.491       .  S
C240        C453   1.513       .  S
C240        C457   1.501       .  S
N241        N242   1.316       .  A
N241        N247   1.313       .  A
N242        C249   1.344   1_554  A
N243        N721   1.313       .  A
N243        N244   1.317       .  A
N243       Mn259   2.175       .  S
N244        C726   1.345       .  A
N245        N719   1.313   1_545  A
N245        N246   1.328       .  A
N245       Mn270   2.233       .  S
N246        C250   1.361   1_545  A
N247        N248   1.330   1_554  A
N247       Mn497   2.250   1_545  S
N248        C249   1.363       .  A
C249        C433   1.448       .  S
C250        N720   1.345       .  A
C250        C915   1.445       .  S
N251        N257   1.319       .  A
N251        N252   1.322       .  A
N251       Mn995   2.207       .  S
N252        C260   1.348       .  A
N253        N254   1.311       .  A
N253        N255   1.314       .  A
N254        C261   1.344       .  A
N255        N256   1.313       .  A
N255      Mn1233   2.165       .  S
N256        C261   1.347       .  A
N257        N258   1.325       .  A
N257       Mn259   2.222       .  S
N258        C260   1.354       .  A
Mn259       N485   2.250       .  S
C260        C442   1.448       .  S
C261        C461   1.430       .  S
N262        N263   1.313       .  A
N262       N1220   1.314       .  A
N262       Mn270   2.161       .  S
N263       C1223   1.346       .  A
N264       N1218   1.319   1_556  A
N264        N265   1.327       .  A
N264       Mn282   2.230       .  S
N265       C1224   1.355       .  A
N266       N1216   1.319   1_554  A
N266        N267   1.322   1_554  A
N267        C272   1.347       .  A
N268       N1214   1.314       .  A
N268        N269   1.313       .  A
N269        C271   1.349       .  A
Mn270      Cl521   2.540   1_545  S
C271       N1215   1.346       .  A
C271        C458   1.436       .  S
C272       N1217   1.355       .  A
C272        C443   1.451       .  S
N273        N274   1.328       .  A
N273        N279   1.314       .  A
N273       Mn281   2.235       .  S
N274        C284   1.360       .  A
N275        N276   1.331       .  A
N275        N277   1.314       .  A
N275       Mn520   2.255       .  S
N276        C285   1.364       .  A
N277        N278   1.316       .  A
N278        C285   1.343       .  A
N279        N756   1.318       .  A
N279       Mn758   2.185       .  S
N280        N755   1.318       .  A
N280        C760   1.347       .  A
Mn281       N965   2.207   1_456  S
Mn281      N1207   2.165   1_455  S
Mn281     Cl1235   2.540   1_456  S
Mn282       N513   2.255   1_546  S
Mn282       N755   2.185       .  S
Mn282     Cl1711   2.534   1_446  S
Cl283      Mn508   2.540       .  S
Cl283     Mn1233   2.540   1_554  S
Cl283     Mn1710   2.534   1_554  S
C284        N756   1.347       .  A
C284        C438   1.449       .  S
C285        C435   1.449       .  S
N286        N287   1.317       .  A
N286        N292   1.315       .  A
N287        C294   1.344   1_554  A
N288        N290   1.316       .  A
N288        N289   1.321       .  A
N288       Mn304   2.199       .  S
N289        C295   1.348       .  A
N290        N291   1.333       .  A
N290       Mn315   2.260       .  S
N291        C295   1.365       .  A
N292        N293   1.329   1_554  A
N293        C294   1.363       .  A
C294        C434   1.448       .  S
C295        C432   1.466       .  S
N296        N302   1.319       .  A
N296        N297   1.322       .  A
N297        C305   1.348       .  A
N298        N299   1.316       .  A
N298        N300   1.317       .  A
N299        C306   1.347       .  A
N300        N301   1.316       .  A
N300       Mn326   2.187       .  S
N301        C306   1.349       .  A
N302        N303   1.326       .  A
N302       Mn304   2.228       .  S
N303        C305   1.356       .  A
C305        C425   1.451       .  S
C306        C466   1.452       .  S
N307        N308   1.318       .  A
N307        N313   1.316       .  A
N307       Mn315   2.191       .  S
N308        C316   1.351       .  A
N309        N311   1.320   1_556  A
N309        N310   1.326       .  A
N309       Mn327   2.229       .  S
N310        C317   1.355       .  A
N311        N312   1.325   1_554  A
N312        C317   1.351       .  A
N313        N314   1.314       .  A
N314        C316   1.345       .  A
C316        C454   1.449       .  S
C317        C428   1.458       .  S
N318        N319   1.332       .  A
N318        N324   1.315       .  A
N318       Mn326   2.252       .  S
N319        C329   1.364       .  A
N320        N321   1.330       .  A
N320        N322   1.315       .  A
N321        C330   1.364       .  A
N322        N323   1.317       .  A
N323        C330   1.344       .  A
N324        N325   1.319       .  A
N324       Mn327   2.189       .  S
N325        C329   1.346       .  A
Mn326      Cl328   2.551   1_556  S
Mn327      Cl328   2.538   1_556  S
C329        C430   1.460       .  S
C330        C436   1.450       .  S
N331        N332   1.315       .  A
N331        N337   1.317       .  A
N331      Mn1312   2.169       .  S
N332        C339   1.346       .  A
N333        N335   1.319       .  A
N333        N334   1.328       .  A
N333       Mn349   2.248       .  S
N334        C340   1.359       .  A
N335        N336   1.320       .  A
N335      Mn1312   2.193       .  S
N336        C340   1.345       .  A
N337        N338   1.313       .  A
N337       Mn349   2.182       .  S
N338        C339   1.349       .  A
C339        C474   1.447       .  S
C340        C444   1.450       .  S
N341        N347   1.319       .  A
N341        N342   1.324       .  A
N341       Mn371   2.218       .  S
N342        C350   1.352       .  A
N343        N344   1.334       .  A
N343        N345   1.318       .  A
N343       Mn349   2.277       .  S
N344        C351   1.365       .  A
N345        N346   1.320       .  A
N345       Mn371   2.183       .  S
N346        C351   1.345       .  A
N347        N348   1.319       .  A
N347       Mn349   2.179       .  S
N348        C350   1.344       .  A
Mn349      Cl373   2.539       .  S
C350        C421   1.442       .  S
C351        C431   1.465       .  S
N352        N353   1.320       .  A
N352        N358   1.315       .  A
N352       Mn360   2.181       .  S
N353        C361   1.347       .  A
N354        N356   1.319       .  A
N354        N355   1.318       .  A
N354       Mn372   2.172       .  S
N355        C362   1.343       .  A
N356        N357   1.326       .  A
N356       Mn360   2.231       .  S
N357        C362   1.354       .  A
N358        N359   1.331       .  A
N358       Mn372   2.255       .  S
N359        C361   1.362       .  A
Mn360      N1283   2.169   1_455  S
Mn360      N1287   2.193   1_455  S
Mn360     Cl1325   2.543   1_455  S
C361        C429   1.460       .  S
C362        C423   1.442       .  S
N363        N364   1.320       .  A
N363        N369   1.317   1_655  A
N363      Mn1323   2.191       .  S
N364        C374   1.346       .  A
N365        N366   1.308       .  A
N365        N367   1.314       .  A
N365       Mn372   2.163       .  S
N366        C375   1.347       .  A
N367       N1320   1.318       .  A
N367      Mn1323   2.175   1_455  S
N368       N1319   1.318       .  A
N368       C1327   1.351       .  A
N369        N370   1.327       .  A
N369       Mn372   2.235       .  S
N370        C374   1.357   1_455  A
Mn371      N1315   2.191       .  S
Mn371      N1319   2.175       .  S
Mn371      Cl373   2.546       .  S
Mn372     Cl1325   2.531   1_455  S
Cl373     Mn1312   2.543       .  S
Cl373     Mn1324   2.531       .  S
C374        C441   1.448       .  S
C375       N1320   1.351       .  A
C375        C450   1.442       .  S
N376        N377   1.326       .  A
N376        N382   1.319       .  A
N376       Mn405   2.229       .  S
N377        C384   1.356       .  A
N378        N380   1.316       .  A
N378        N379   1.314       .  A
N378       Mn394   2.147       .  S
N379        C385   1.343       .  A
N380        N381   1.310       .  A
N380       Mn405   2.176       .  S
N381        C385   1.347       .  A
N382        N383   1.318       .  A
N382       Mn394   2.191       .  S
N383        C384   1.344       .  A
C384        C422   1.442       .  S
C385        C446   1.436       .  S
N386        N392   1.318       .  A
N386        N387   1.320       .  A
N386       Mn416   2.183       .  S
N387        C395   1.347       .  A
N388        N389   1.315       .  A
N388        N390   1.312       .  A
N388       Mn870   2.159       .  S
N389        C396   1.344       .  A
N390        N391   1.329       .  A
N390       Mn416   2.252       .  S
N391        C396   1.362       .  A
N392        N393   1.327       .  A
N392       Mn870   2.236       .  S
N393        C395   1.356       .  A
Mn394       N864   2.159   1_545  S
Mn394       N868   2.236   1_545  S
Mn394      Cl894   2.547   1_545  S
C395        C426   1.451       .  S
C396        C440   1.444       .  S
N397        N398   1.330       .  A
N397        N879   1.316   1_545  A
N397       Mn405   2.258       .  S
N398        C406   1.364       .  A
N399        N401   1.317       .  A
N399        N400   1.328       .  A
N399       Mn893   2.234   1_545  S
N400        C407   1.357       .  A
N401        N402   1.322       .  A
N401       Mn405   2.196       .  S
N402        C407   1.348       .  A
N403        N873   1.316       .  A
N403        N404   1.315       .  A
N403       Mn417   2.171       .  S
N404        C882   1.344       .  A
Mn405      Cl894   2.536   1_545  S
C406        N880   1.344   1_545  A
C406        C913   1.447       .  S
C407        C427   1.457       .  S
N408        N409   1.306       .  A
N408        N414   1.316       .  A
N408       Mn416   2.136       .  S
N409        C419   1.333       .  A
N410        N411   1.318       .  A
N410        N412   1.318       .  A
N410       Mn417   2.186       .  S
N411        C420   1.342       .  A
N412        N413   1.327       .  A
N412       Mn416   2.229       .  S
N413        C420   1.357       .  A
N414        N415   1.318       .  A
N414       Mn417   2.173       .  S
N415        C419   1.350       .  A
Mn416      Cl418   2.534       .  S
Mn417       N875   2.234       .  S
Mn417      Cl418   2.549       .  S
Cl418      Mn870   2.547       .  S
Cl418      Mn881   2.536       .  S
C419        C470   1.421       .  S
C420        C424   1.442       .  S
C421        C422   1.210       .  T
C423        C424   1.210       .  T
C425        C426   1.215       .  T
C427        C428   1.219       .  T
C429        C430   1.221       .  T
C431        C432   1.224       .  T
C433        C434   1.214       .  T
C435        C436   1.215       .  T
C437        C882   1.447       .  S
C437        C438   1.214       .  T
C439        C726   1.445       .  S
C439        C440   1.212       .  T
C441       C1394   1.213       .  T
C442       C1393   1.213       .  T
C443        C444   1.215       .  T
C445        C446   1.334       .  D
C445        H447   1.088       .  S
C446        H448   1.087       .  S
C449        C450   1.340       .  D
C449        H451   1.092       .  S
C450        H452   1.082       .  S
C453        C454   1.349       .  D
C453        H455   1.088       .  S
C454        H456   1.086       .  S
C457        C458   1.345       .  D
C457        H459   1.089       .  S
C458        H460   1.084       .  S
C461        C462   1.347       .  D
C461        H463   1.079       .  S
C462        H464   1.088       .  S
C465        C466   1.350       .  D
C465        H467   1.087       .  S
C466        H468   1.085       .  S
C469        C470   1.325       .  D
C469        H471   1.091       .  S
C470        H472   1.081       .  S
C473        C474   1.339       .  D
C473        H475   1.087       .  S
C474        H476   1.083       .  S
C477        C700   1.507       .  S
C477        C703   1.516       .  S
C477        C707   1.499       .  S
C477        C711   1.517       .  S
C478        C683   1.496       .  S
C478        C687   1.491       .  S
C478        C691   1.513       .  S
C478        C695   1.501       .  S
N479        N480   1.316       .  A
N479        N485   1.313       .  A
N479       Mn746   2.170       .  S
N480        C487   1.344       .  A
N481        N482   1.317       .  A
N481       Mn497   2.175       .  S
N483        N484   1.328       .  A
N483       Mn508   2.233       .  S
N484        C488   1.361       .  A
N485        N486   1.330       .  A
N486        C487   1.363       .  A
C487        C671   1.448       .  S
N489        N495   1.319       .  A
N489        N490   1.322       .  A
N489      Mn1709   2.207   1_554  S
N490        C498   1.348       .  A
N491        N492   1.311       .  A
N491        N493   1.314       .  A
N491       Mn735   2.156       .  S
N492        C499   1.344       .  A
N493        N494   1.313       .  A
N493      Mn1471   2.165       .  S
N494        C499   1.347       .  A
N495        N496   1.325       .  A
N495       Mn497   2.222       .  S
N496        C498   1.354       .  A
Mn497       N729   2.157   1_554  S
Mn497      Cl759   2.531       .  S
C498        C680   1.448       .  S
C499        C699   1.430       .  S
N500        N501   1.313       .  A
N500       N1458   1.314       .  A
N500       Mn508   2.161       .  S
N501       C1461   1.346       .  A
N502       N1456   1.319       .  A
N502        N503   1.327       .  A
N502       Mn520   2.230       .  S
N503       C1462   1.355       .  A
N504       N1454   1.319       .  A
N504        N505   1.322       .  A
N504       Mn746   2.206       .  S
N505        C510   1.347       .  A
N506       N1452   1.314       .  A
N506        N507   1.313       .  A
N506       Mn758   2.175   1_554  S
N507        C509   1.349       .  A
Mn508       N717   2.170       .  S
Mn508       N742   2.206       .  S
C509       N1453   1.346       .  A
C509        C696   1.436       .  S
C510       N1455   1.355       .  A
C510        C681   1.451       .  S
N511        N512   1.328       .  A
N511        N517   1.314   1_565  A
N511       Mn519   2.235       .  S
N512        C522   1.361   1_565  A
N513        N514   1.331       .  A
N513        N515   1.314   1_554  A
N514        C523   1.365       .  A
N515        N516   1.316       .  A
N515       Mn757   2.170       .  S
N516        C523   1.343   1_556  A
Mn519      N1679   2.207   1_455  S
Mn519      N1445   2.165   1_455  S
Mn519       N753   2.170       .  S
Mn519     Cl1473   2.540   1_455  S
Mn520       N744   2.175       .  S
Mn520      Cl997   2.534   1_455  S
Cl521      Mn735   2.531       .  S
Cl521     Mn1471   2.540       .  S
Cl521      Mn996   2.534   1_565  S
C522        C676   1.449       .  S
C523        C673   1.449       .  S
N524        N525   1.317       .  A
N524        N530   1.315       .  A
N524       Mn791   2.176       .  S
N525        C532   1.344       .  A
N526        N528   1.316       .  A
N526        N527   1.321       .  A
N526       Mn542   2.199       .  S
N527        C533   1.348       .  A
N528        N529   1.333       .  A
N528       Mn553   2.260       .  S
N529        C533   1.365       .  A
N530        N531   1.329       .  A
N530       Mn780   2.250       .  S
N531        C532   1.363       .  A
C532        C672   1.448       .  S
C533        C670   1.466       .  S
N534        N540   1.319   1_556  A
N534        N535   1.322   1_556  A
N534       Mn802   2.214       .  S
N535        C543   1.348       .  A
N536        N537   1.316       .  A
N536        N538   1.317       .  A
N536       Mn780   2.183       .  S
N537        C544   1.347       .  A
N538        N539   1.316       .  A
N538       Mn564   2.187       .  S
N539        C544   1.349       .  A
N540        N541   1.326       .  A
N540       Mn542   2.228       .  S
N541        C543   1.356       .  A
Mn542       N768   2.250       .  S
Mn542       N774   2.183   1_554  S
Mn542      Cl804   2.541       .  S
C543        C663   1.451       .  S
C544        C704   1.452       .  S
N545        N546   1.318       .  A
N545        N551   1.316       .  A
N545       Mn553   2.191       .  S
N546        C554   1.351       .  A
N547        N549   1.320       .  A
N547        N548   1.326       .  A
N547       Mn565   2.229       .  S
N548        C555   1.355       .  A
N549        N550   1.325       .  A
N549       Mn791   2.226       .  S
N550        C555   1.351       .  A
N551        N552   1.314       .  A
N551       Mn803   2.173   1_554  S
N552        C554   1.345       .  A
Mn553       N762   2.176       .  S
Mn553       N787   2.226       .  S
Mn553      Cl804   2.554       .  S
C554        C692   1.449       .  S
C555        C666   1.458       .  S
N556        N557   1.332       .  A
N556        N562   1.315       .  A
N556       Mn564   2.252       .  S
N557        C567   1.364       .  A
N558        N559   1.330   1_556  A
N558        N560   1.315       .  A
N558       Mn803   2.253       .  S
N559        C568   1.364       .  A
N560        N561   1.317       .  A
N560       Mn802   2.177       .  S
N561        C568   1.344   1_556  A
N562        N563   1.319       .  A
N562       Mn565   2.189       .  S
N563        C567   1.346       .  A
Mn564       N772   2.214       .  S
Mn564       N798   2.177       .  S
Mn564      Cl566   2.551       .  S
Mn565       N789   2.173       .  S
Mn565       N796   2.253       .  S
Mn565      Cl566   2.538       .  S
Cl566      Mn780   2.541       .  S
Cl566      Mn791   2.553       .  S
C567        C668   1.460       .  S
C568        C674   1.450       .  S
N569        N570   1.315       .  A
N569        N575   1.317       .  A
N569      Mn1550   2.169       .  S
N570        C577   1.346       .  A
N571        N573   1.319       .  A
N571        N572   1.328       .  A
N571       Mn587   2.248       .  S
N572        C578   1.359       .  A
N573        N574   1.320       .  A
N573      Mn1550   2.193       .  S
N574        C578   1.345       .  A
N575        N576   1.313       .  A
N575       Mn587   2.182       .  S
N576        C577   1.349       .  A
C577        C712   1.447       .  S
C578        C682   1.450       .  S
N579        N585   1.318       .  A
N579        N580   1.324       .  A
N579       Mn609   2.218       .  S
N580        C588   1.352       .  A
N581        N582   1.334       .  A
N581        N583   1.318       .  A
N581       Mn587   2.277       .  S
N582        C589   1.365       .  A
N583        N584   1.320       .  A
N583       Mn609   2.183       .  S
N584        C589   1.345       .  A
N585        N586   1.319       .  A
N585       Mn587   2.179       .  S
N586        C588   1.344       .  A
Mn587      Cl611   2.539       .  S
C588        C659   1.442       .  S
C589        C669   1.465       .  S
N590        N591   1.320       .  A
N590        N596   1.315       .  A
N590       Mn598   2.181       .  S
N591        C599   1.347       .  A
N592        N594   1.319       .  A
N592        N593   1.318       .  A
N592       Mn610   2.172       .  S
N593        C600   1.343       .  A
N594        N595   1.326       .  A
N594       Mn598   2.231       .  S
N595        C600   1.354       .  A
N596        N597   1.331       .  A
N596       Mn610   2.255       .  S
N597        C599   1.362       .  A
Mn598      N1521   2.169   1_455  S
Mn598      N1525   2.193   1_455  S
Mn598     Cl1563   2.543   1_455  S
C599        C667   1.460       .  S
C600        C661   1.442       .  S
N601        N602   1.320       .  A
N601        N607   1.317   1_655  A
N601      Mn1561   2.191       .  S
N602        C612   1.346       .  A
N603        N604   1.308       .  A
N603        N605   1.314       .  A
N603       Mn610   2.163       .  S
N604        C613   1.347       .  A
N605       N1558   1.318       .  A
N605      Mn1561   2.175   1_455  S
N606       N1557   1.318       .  A
N606       C1565   1.351       .  A
N607        N608   1.327       .  A
N607       Mn610   2.235       .  S
N608        C612   1.357   1_455  A
Mn609      N1553   2.191       .  S
Mn609      N1557   2.175       .  S
Mn609      Cl611   2.546       .  S
Mn610     Cl1563   2.531   1_455  S
Cl611     Mn1550   2.543       .  S
Cl611     Mn1562   2.531       .  S
C612        C679   1.448       .  S
C613       N1558   1.351       .  A
C613        C688   1.442       .  S
N614        N615   1.326       .  A
N614        N620   1.319       .  A
N614       Mn643   2.229       .  S
N615        C622   1.356       .  A
N616        N618   1.316       .  A
N616        N617   1.314       .  A
N616       Mn632   2.147       .  S
N617        C623   1.343       .  A
N618        N619   1.310       .  A
N618       Mn643   2.176       .  S
N619        C623   1.347       .  A
N620        N621   1.318       .  A
N620       Mn632   2.191       .  S
N621        C622   1.344       .  A
C622        C660   1.442       .  S
C623        C684   1.436       .  S
N624        N630   1.318       .  A
N624        N625   1.320       .  A
N624       Mn654   2.183       .  S
N625        C633   1.347       .  A
N626        N627   1.315   1_565  A
N626        N628   1.312       .  A
N627        C634   1.344   1_545  A
N628        N629   1.329       .  A
N628       Mn654   2.252       .  S
N629        C634   1.362       .  A
N630        N631   1.327       .  A
N631        C633   1.356       .  A
C633        C664   1.451       .  S
C634        C678   1.444       .  S
N635        N636   1.330       .  A
N635       Mn643   2.258       .  S
N636        C644   1.364       .  A
N637        N639   1.317       .  A
N637        N638   1.328       .  A
N638        C645   1.357       .  A
N639        N640   1.322       .  A
N639       Mn643   2.196       .  S
N640        C645   1.348       .  A
N641        N642   1.315       .  A
N641       Mn655   2.171       .  S
C645        C665   1.457       .  S
N646        N647   1.306       .  A
N646        N652   1.316       .  A
N646       Mn654   2.136       .  S
N647        C657   1.333       .  A
N648        N649   1.318       .  A
N648        N650   1.318       .  A
N648       Mn655   2.186       .  S
N649        C658   1.342       .  A
N650        N651   1.327       .  A
N650       Mn654   2.229       .  S
N651        C658   1.357       .  A
N652        N653   1.318       .  A
N652       Mn655   2.173       .  S
N653        C657   1.350       .  A
Mn654      Cl656   2.534       .  S
Mn655      Cl656   2.549       .  S
C657        C708   1.421       .  S
C658        C662   1.442       .  S
C659        C660   1.210       .  T
C661        C662   1.210       .  T
C663        C664   1.215       .  T
C665        C666   1.219       .  T
C667        C668   1.221       .  T
C669        C670   1.224       .  T
C671        C672   1.214       .  T
C673        C674   1.215       .  T
C675        C676   1.214       .  T
C677        C678   1.212       .  T
C679       C1632   1.213       .  T
C680       C1631   1.213       .  T
C681        C682   1.215       .  T
C683        C684   1.334       .  D
C683        H685   1.088       .  S
C684        H686   1.087       .  S
C687        C688   1.340       .  D
C687        H689   1.092       .  S
C688        H690   1.082       .  S
C691        C692   1.349       .  D
C691        H693   1.088       .  S
C692        H694   1.086       .  S
C695        C696   1.345       .  D
C695        H697   1.089       .  S
C696        H698   1.084       .  S
C699        C700   1.347       .  D
C699        H701   1.079       .  S
C700        H702   1.088       .  S
C703        C704   1.350       .  D
C703        H705   1.087       .  S
C704        H706   1.085       .  S
C707        C708   1.325       .  D
C707        H709   1.091       .  S
C708        H710   1.081       .  S
C711        C712   1.339       .  D
C711        H713   1.087       .  S
C712        H714   1.083       .  S
C715        C938   1.507       .  S
C715        C941   1.516       .  S
C715        C945   1.500       .  S
C715        C949   1.517       .  S
C716        C921   1.496       .  S
C716        C925   1.491       .  S
C716        C929   1.513       .  S
C716        C933   1.501       .  S
N717        N718   1.316       .  A
N717        N723   1.313       .  A
N718        C725   1.344   1_554  A
N719        N720   1.317       .  A
N719       Mn735   2.175       .  S
N721        N722   1.328       .  A
N721       Mn746   2.233       .  S
N722        C726   1.361       .  A
N723        N724   1.330   1_554  A
N724        C725   1.363       .  A
C725        C909   1.448       .  S
N727        N733   1.319       .  A
N727        N728   1.322       .  A
N727      Mn1471   2.207       .  S
N728        C736   1.348       .  A
N729        N730   1.311       .  A
N729        N731   1.314       .  A
N730        C737   1.344       .  A
N731        N732   1.313       .  A
N731      Mn1709   2.165       .  S
N732        C737   1.347       .  A
N733        N734   1.325       .  A
N733       Mn735   2.222       .  S
N734        C736   1.354       .  A
C736        C918   1.448       .  S
C737        C937   1.430       .  S
N738        N739   1.313       .  A
N738       N1696   1.314       .  A
N738       Mn746   2.161       .  S
N739       C1699   1.346       .  A
N740       N1694   1.319   1_556  A
N740        N741   1.327       .  A
N740       Mn758   2.230       .  S
N741       C1700   1.355       .  A
N742       N1692   1.319   1_554  A
N742        N743   1.322   1_554  A
N743        C748   1.347       .  A
N744       N1690   1.314       .  A
N744        N745   1.313       .  A
N745        C747   1.349       .  A
C747       N1691   1.346       .  A
C747        C934   1.436       .  S
C748       N1693   1.355       .  A
C748        C919   1.451       .  S
N749        N750   1.328       .  A
N749        N755   1.314   1_565  A
N749       Mn757   2.235       .  S
N750        C760   1.361   1_565  A
N751        N752   1.331       .  A
N751        N753   1.314       .  A
N752        C761   1.364       .  A
N753        N754   1.316       .  A
N754        C761   1.343       .  A
Mn757      N1441   2.207   1_456  S
Mn757      N1683   2.165   1_455  S
Mn757     Cl1711   2.540   1_456  S
Mn758     Cl1235   2.534   1_456  S
Cl759     Mn1709   2.540   1_554  S
Cl759     Mn1234   2.534   1_564  S
C760        C914   1.449       .  S
C761        C911   1.449       .  S
N762        N763   1.317       .  A
N762        N768   1.315       .  A
N763        C770   1.344   1_554  A
N764        N766   1.316       .  A
N764        N765   1.321       .  A
N764       Mn780   2.199       .  S
N765        C771   1.348       .  A
N766        N767   1.333       .  A
N766       Mn791   2.260       .  S
N767        C771   1.365       .  A
N768        N769   1.329   1_554  A
N769        C770   1.363       .  A
C770        C910   1.448       .  S
C771        C908   1.466       .  S
N772        N778   1.319       .  A
N772        N773   1.322       .  A
N773        C781   1.348       .  A
N774        N775   1.316       .  A
N774        N776   1.317       .  A
N775        C782   1.347       .  A
N776        N777   1.316       .  A
N776       Mn802   2.187       .  S
N777        C782   1.349       .  A
N778        N779   1.326       .  A
N778       Mn780   2.228       .  S
N779        C781   1.356       .  A
C781        C901   1.451       .  S
C782        C942   1.451       .  S
N783        N784   1.318       .  A
N783        N789   1.316       .  A
N783       Mn791   2.191       .  S
N784        C792   1.351       .  A
N785        N787   1.320   1_556  A
N785        N786   1.326       .  A
N785       Mn803   2.229       .  S
N786        C793   1.355       .  A
N787        N788   1.325   1_554  A
N788        C793   1.351       .  A
N789        N790   1.314       .  A
N790        C792   1.345       .  A
C792        C930   1.449       .  S
C793        C904   1.458       .  S
N794        N795   1.332       .  A
N794        N800   1.315       .  A
N794       Mn802   2.252       .  S
N795        C805   1.364       .  A
N796        N797   1.330       .  A
N796        N798   1.315       .  A
N797        C806   1.364       .  A
N798        N799   1.317       .  A
N799        C806   1.344       .  A
N800        N801   1.319       .  A
N800       Mn803   2.189       .  S
N801        C805   1.346       .  A
Mn802      Cl804   2.551   1_556  S
Mn803      Cl804   2.538   1_556  S
C805        C906   1.460       .  S
C806        C912   1.450       .  S
N807        N808   1.315       .  A
N807        N813   1.317       .  A
N807      Mn1788   2.169       .  S
N808        C815   1.346       .  A
N809        N811   1.319       .  A
N809        N810   1.328       .  A
N809       Mn825   2.248       .  S
N810        C816   1.359       .  A
N811        N812   1.320       .  A
N811      Mn1788   2.193       .  S
N812        C816   1.345       .  A
N813        N814   1.313       .  A
N813       Mn825   2.182       .  S
N814        C815   1.349       .  A
C815        C950   1.447       .  S
C816        C920   1.450       .  S
N817        N823   1.318       .  A
N817        N818   1.324       .  A
N817       Mn847   2.218       .  S
N818        C826   1.352       .  A
N819        N820   1.334       .  A
N819        N821   1.318       .  A
N819       Mn825   2.277       .  S
N820        C827   1.365       .  A
N821        N822   1.320       .  A
N821       Mn847   2.183       .  S
N822        C827   1.345       .  A
N823        N824   1.319       .  A
N823       Mn825   2.179       .  S
N824        C826   1.344       .  A
Mn825      Cl849   2.538       .  S
C826        C897   1.442       .  S
C827        C907   1.465       .  S
N828        N829   1.320       .  A
N828        N834   1.315       .  A
N828       Mn836   2.181       .  S
N829        C837   1.347       .  A
N830        N832   1.319       .  A
N830        N831   1.318       .  A
N830       Mn848   2.172       .  S
N831        C838   1.343       .  A
N832        N833   1.326       .  A
N832       Mn836   2.231       .  S
N833        C838   1.354       .  A
N834        N835   1.331       .  A
N834       Mn848   2.255       .  S
N835        C837   1.362       .  A
Mn836      N1759   2.169   1_455  S
Mn836      N1763   2.193   1_455  S
Mn836     Cl1801   2.543   1_455  S
C837        C905   1.460       .  S
C838        C899   1.442       .  S
N839        N840   1.320       .  A
N839        N845   1.317   1_655  A
N839      Mn1799   2.191       .  S
N840        C850   1.346       .  A
N841        N842   1.308       .  A
N841        N843   1.314       .  A
N841       Mn848   2.163       .  S
N842        C851   1.347       .  A
N843       N1796   1.318       .  A
N843      Mn1799   2.175   1_455  S
N844       N1795   1.318       .  A
N844       C1803   1.351       .  A
N845        N846   1.327       .  A
N845       Mn848   2.235       .  S
N846        C850   1.357   1_455  A
Mn847      N1791   2.191       .  S
Mn847      N1795   2.175       .  S
Mn847      Cl849   2.546       .  S
Mn848     Cl1801   2.531   1_455  S
Cl849     Mn1788   2.543       .  S
Cl849     Mn1800   2.531       .  S
C850        C917   1.448       .  S
C851       N1796   1.351       .  A
C851        C926   1.442       .  S
N852        N853   1.326       .  A
N852        N858   1.319       .  A
N852       Mn881   2.229       .  S
N853        C860   1.356       .  A
N854        N856   1.316       .  A
N854        N855   1.314       .  A
N854       Mn870   2.147       .  S
N855        C861   1.343       .  A
N856        N857   1.310       .  A
N856       Mn881   2.176       .  S
N857        C861   1.347       .  A
N858        N859   1.318       .  A
N858       Mn870   2.191       .  S
N859        C860   1.344       .  A
C860        C898   1.442       .  S
C861        C922   1.436       .  S
N862        N868   1.318       .  A
N862        N863   1.320       .  A
N862       Mn892   2.183       .  S
N863        C871   1.347       .  A
N864        N865   1.315   1_565  A
N864        N866   1.312       .  A
N865        C872   1.344   1_545  A
N866        N867   1.329       .  A
N866       Mn892   2.251       .  S
N867        C872   1.362       .  A
N868        N869   1.327       .  A
N869        C871   1.356       .  A
C871        C902   1.451       .  S
C872        C916   1.444       .  S
N873        N874   1.330       .  A
N873       Mn881   2.258       .  S
N874        C882   1.364       .  A
N875        N877   1.317       .  A
N875        N876   1.328       .  A
N876        C883   1.357       .  A
N877        N878   1.322       .  A
N877       Mn881   2.196       .  S
N878        C883   1.348       .  A
N879        N880   1.315       .  A
N879       Mn893   2.171       .  S
C883        C903   1.457       .  S
N884        N885   1.306       .  A
N884        N890   1.316       .  A
N884       Mn892   2.136       .  S
N885        C895   1.333       .  A
N886        N887   1.318       .  A
N886        N888   1.318       .  A
N886       Mn893   2.186       .  S
N887        C896   1.342       .  A
N888        N889   1.327       .  A
N888       Mn892   2.229       .  S
N889        C896   1.357       .  A
N890        N891   1.318       .  A
N890       Mn893   2.173       .  S
N891        C895   1.350       .  A
Mn892      Cl894   2.534       .  S
Mn893      Cl894   2.549       .  S
C895        C946   1.421       .  S
C896        C900   1.442       .  S
C897        C898   1.210       .  T
C899        C900   1.210       .  T
C901        C902   1.215       .  T
C903        C904   1.219       .  T
C905        C906   1.221       .  T
C907        C908   1.224       .  T
C909        C910   1.214       .  T
C911        C912   1.215       .  T
C913        C914   1.214       .  T
C915        C916   1.212       .  T
C917       C1870   1.213       .  T
C918       C1869   1.213       .  T
C919        C920   1.215       .  T
C921        C922   1.334       .  D
C921        H923   1.088       .  S
C922        H924   1.087       .  S
C925        C926   1.340       .  D
C925        H927   1.092       .  S
C926        H928   1.082       .  S
C929        C930   1.349       .  D
C929        H931   1.088       .  S
C930        H932   1.086       .  S
C933        C934   1.345       .  D
C933        H935   1.089       .  S
C934        H936   1.084       .  S
C937        C938   1.347       .  D
C937        H939   1.079       .  S
C938        H940   1.088       .  S
C941        C942   1.350       .  D
C941        H943   1.087       .  S
C942        H944   1.085       .  S
C945        C946   1.325       .  D
C945        H947   1.091       .  S
C946        H948   1.081       .  S
C949        C950   1.339       .  D
C949        H951   1.087       .  S
C950        H952   1.083       .  S
C953       C1176   1.507       .  S
C953       C1179   1.516       .  S
C953       C1183   1.500       .  S
C953       C1187   1.517       .  S
C954       C1159   1.496       .  S
C954       C1163   1.491       .  S
C954       C1167   1.513       .  S
C954       C1171   1.501       .  S
N955        N956   1.316       .  A
N955        N961   1.313       .  A
N955      Mn1222   2.170       .  S
N956        C963   1.344       .  A
N957       N1435   1.313       .  A
N957        N958   1.317       .  A
N957       Mn973   2.175       .  S
N958       C1440   1.345       .  A
N959       N1433   1.313   1_545  A
N959        N960   1.328       .  A
N959       Mn984   2.233       .  S
N960        C964   1.361   1_545  A
N961        N962   1.330       .  A
N961      Mn1687   2.249   1_545  S
N962        C963   1.363       .  A
C963       C1147   1.448       .  S
C964       N1434   1.345       .  A
C964       C1629   1.445       .  S
N965        N971   1.319       .  A
N965        N966   1.322       .  A
N966        C974   1.348       .  A
N967        N968   1.311       .  A
N967        N969   1.314       .  A
N967      Mn1211   2.157       .  S
N968        C975   1.344       .  A
N969        N970   1.313       .  A
N970        C975   1.347       .  A
N971        N972   1.325       .  A
N971       Mn973   2.222       .  S
N972        C974   1.354       .  A
Mn973      N1675   2.249       .  S
Mn973      N1205   2.157   1_554  S
Mn973     Cl1235   2.531       .  S
C974       C1156   1.448       .  S
C975       C1175   1.430       .  S
N976        N977   1.313       .  A
N976       Mn984   2.161   1_455  S
N978        N979   1.327       .  A
N978       Mn996   2.230       .  S
N980        N981   1.322   1_455  A
N980      Mn1222   2.206   1_455  S
N981        C986   1.347   1_655  A
N982        N983   1.313       .  A
N982      Mn1234   2.175   1_554  S
N983        C985   1.349       .  A
Mn984      N1193   2.170       .  S
Mn984      N1218   2.206   1_655  S
Mn984     Cl1711   2.540   1_545  S
C985       C1172   1.436       .  S
C986       C1157   1.451       .  S
N987        N988   1.328       .  A
N987        N993   1.314       .  A
N987       Mn995   2.235       .  S
N988        C998   1.361       .  A
N989        N990   1.331       .  A
N989        N991   1.314   1_554  A
N989      Mn1710   2.255   1_554  S
N990        C999   1.364       .  A
N991        N992   1.316       .  A
N991      Mn1233   2.170       .  S
N992        C999   1.343   1_556  A
N993       N1470   1.318       .  A
N993      Mn1472   2.185       .  S
N994       N1469   1.318       .  A
N994       C1474   1.347       .  A
Mn995      N1229   2.170       .  S
Mn996      N1220   2.175       .  S
Mn996      N1703   2.255   1_545  S
Mn996      N1469   2.185       .  S
Cl997     Mn1211   2.531       .  S
Cl997     Mn1698   2.540       .  S
C998       N1470   1.347       .  A
C998       C1152   1.449       .  S
C999       C1149   1.449       .  S
N1000      N1001   1.317       .  A
N1000      N1006   1.315       .  A
N1000     Mn1267   2.176       .  S
N1001      C1008   1.344       .  A
N1002      N1004   1.316       .  A
N1002      N1003   1.321       .  A
N1002     Mn1018   2.199       .  S
N1003      C1009   1.348       .  A
N1004      N1005   1.333       .  A
N1004     Mn1029   2.260       .  S
N1005      C1009   1.365       .  A
N1006      N1007   1.329       .  A
N1006     Mn1256   2.250       .  S
N1007      C1008   1.363       .  A
C1008      C1148   1.448       .  S
C1009      C1146   1.466       .  S
N1010      N1016   1.319   1_556  A
N1010      N1011   1.322   1_556  A
N1010     Mn1278   2.214       .  S
N1011      C1019   1.348       .  A
N1012      N1013   1.316       .  A
N1012      N1014   1.317       .  A
N1012     Mn1256   2.183       .  S
N1013      C1020   1.347       .  A
N1014      N1015   1.316       .  A
N1014     Mn1040   2.187       .  S
N1015      C1020   1.349       .  A
N1016      N1017   1.326       .  A
N1016     Mn1018   2.228       .  S
N1017      C1019   1.356       .  A
Mn1018     N1244   2.250       .  S
Mn1018     N1250   2.183   1_554  S
Mn1018    Cl1280   2.541       .  S
C1019      C1139   1.451       .  S
C1020      C1180   1.451       .  S
N1021      N1022   1.318       .  A
N1021      N1027   1.316       .  A
N1021     Mn1029   2.191       .  S
N1022      C1030   1.351       .  A
N1023      N1025   1.320       .  A
N1023      N1024   1.326       .  A
N1023     Mn1041   2.229       .  S
N1024      C1031   1.355       .  A
N1025      N1026   1.325       .  A
N1025     Mn1267   2.226       .  S
N1026      C1031   1.351       .  A
N1027      N1028   1.314       .  A
N1027     Mn1279   2.173   1_554  S
N1028      C1030   1.345       .  A
Mn1029     N1238   2.176       .  S
Mn1029     N1263   2.226       .  S
Mn1029    Cl1280   2.554       .  S
C1030      C1168   1.449       .  S
C1031      C1142   1.458       .  S
N1032      N1033   1.332       .  A
N1032      N1038   1.315       .  A
N1032     Mn1040   2.252       .  S
N1033      C1043   1.364       .  A
N1034      N1035   1.330   1_556  A
N1034      N1036   1.315       .  A
N1034     Mn1279   2.253       .  S
N1035      C1044   1.364       .  A
N1036      N1037   1.317       .  A
N1036     Mn1278   2.177       .  S
N1037      C1044   1.344   1_556  A
N1038      N1039   1.319       .  A
N1038     Mn1041   2.189       .  S
N1039      C1043   1.346       .  A
Mn1040     N1248   2.214       .  S
Mn1040     N1274   2.177       .  S
Mn1040    Cl1042   2.551       .  S
Mn1041     N1265   2.173       .  S
Mn1041     N1272   2.253       .  S
Mn1041    Cl1042   2.538       .  S
Cl1042    Mn1256   2.541       .  S
Cl1042    Mn1267   2.554       .  S
C1043      C1144   1.460       .  S
C1044      C1150   1.450       .  S
N1045      N1046   1.315       .  A
N1045      N1051   1.317       .  A
N1046      C1053   1.346       .  A
N1047      N1049   1.319       .  A
N1047      N1048   1.328       .  A
N1047     Mn1063   2.248       .  S
N1048      C1054   1.359       .  A
N1049      N1050   1.320   1_655  A
N1050      C1054   1.345   1_455  A
N1051      N1052   1.313       .  A
N1051     Mn1063   2.182       .  S
N1052      C1053   1.349       .  A
C1053      C1188   1.447       .  S
C1054      C1158   1.450       .  S
N1055      N1061   1.318       .  A
N1055      N1056   1.324       .  A
N1055     Mn1085   2.218       .  S
N1056      C1064   1.352       .  A
N1057      N1058   1.334       .  A
N1057      N1059   1.318       .  A
N1057     Mn1063   2.277       .  S
N1058      C1065   1.365       .  A
N1059      N1060   1.319       .  A
N1059     Mn1085   2.183       .  S
N1060      C1065   1.345       .  A
N1061      N1062   1.319       .  A
N1061     Mn1063   2.179       .  S
N1062      C1064   1.344       .  A
Mn1063    Cl1087   2.538       .  S
C1064      C1135   1.442       .  S
C1065      C1145   1.465       .  S
N1066      N1067   1.320       .  A
N1066      N1072   1.315       .  A
N1066     Mn1074   2.181       .  S
N1067      C1075   1.347       .  A
N1068      N1070   1.319       .  A
N1068      N1069   1.318       .  A
N1068     Mn1086   2.172       .  S
N1069      C1076   1.343       .  A
N1070      N1071   1.326       .  A
N1070     Mn1074   2.231       .  S
N1071      C1076   1.354       .  A
N1072      N1073   1.331       .  A
N1072     Mn1086   2.255       .  S
N1073      C1075   1.362       .  A
C1075      C1143   1.460       .  S
C1076      C1137   1.442       .  S
N1077      N1078   1.320       .  A
N1077      N1083   1.317       .  A
N1078      C1088   1.346       .  A
N1079      N1080   1.308       .  A
N1079      N1081   1.314       .  A
N1079     Mn1086   2.163       .  S
N1080      C1089   1.347       .  A
N1083      N1084   1.327       .  A
N1083     Mn1086   2.235       .  S
N1084      C1088   1.357       .  A
Mn1085    Cl1087   2.546       .  S
C1088      C1155   1.448       .  S
C1089      C1164   1.442       .  S
N1090      N1091   1.326       .  A
N1090      N1096   1.319       .  A
N1090     Mn1119   2.229       .  S
N1091      C1098   1.356       .  A
N1092      N1094   1.316       .  A
N1092      N1093   1.314       .  A
N1092     Mn1108   2.147       .  S
N1093      C1099   1.343       .  A
N1094      N1095   1.310       .  A
N1094     Mn1119   2.176       .  S
N1095      C1099   1.347       .  A
N1096      N1097   1.318       .  A
N1096     Mn1108   2.191       .  S
N1097      C1098   1.344       .  A
C1098      C1136   1.442       .  S
C1099      C1160   1.436       .  S
N1100      N1106   1.318       .  A
N1100      N1101   1.320       .  A
N1100     Mn1130   2.183       .  S
N1101      C1109   1.347       .  A
N1102      N1103   1.315       .  A
N1102      N1104   1.312       .  A
N1102     Mn1584   2.159       .  S
N1103      C1110   1.344       .  A
N1104      N1105   1.329       .  A
N1104     Mn1130   2.251       .  S
N1105      C1110   1.362       .  A
N1106      N1107   1.327       .  A
N1106     Mn1584   2.236       .  S
N1107      C1109   1.356       .  A
Mn1108     N1578   2.159   1_545  S
Mn1108     N1582   2.236   1_545  S
Mn1108    Cl1608   2.547   1_545  S
C1109      C1140   1.451       .  S
C1110      C1154   1.444       .  S
N1111      N1112   1.330       .  A
N1111      N1593   1.316   1_545  A
N1111     Mn1119   2.258       .  S
N1112      C1120   1.364       .  A
N1113      N1115   1.317       .  A
N1113      N1114   1.328       .  A
N1113     Mn1607   2.234   1_545  S
N1114      C1121   1.357       .  A
N1115      N1116   1.322       .  A
N1115     Mn1119   2.196       .  S
N1116      C1121   1.348       .  A
N1117      N1587   1.316       .  A
N1117      N1118   1.315       .  A
N1117     Mn1131   2.171       .  S
N1118      C1596   1.344       .  A
Mn1119    Cl1608   2.536   1_545  S
C1120      N1594   1.344   1_545  A
C1120      C1627   1.447       .  S
C1121      C1141   1.457       .  S
N1122      N1123   1.306       .  A
N1122      N1128   1.316       .  A
N1122     Mn1130   2.136       .  S
N1123      C1133   1.333       .  A
N1124      N1125   1.318       .  A
N1124      N1126   1.318       .  A
N1124     Mn1131   2.186       .  S
N1125      C1134   1.342       .  A
N1126      N1127   1.327       .  A
N1126     Mn1130   2.229       .  S
N1127      C1134   1.357       .  A
N1128      N1129   1.318       .  A
N1128     Mn1131   2.173       .  S
N1129      C1133   1.350       .  A
Mn1130    Cl1132   2.534       .  S
Mn1131     N1589   2.234       .  S
Mn1131    Cl1132   2.549       .  S
Cl1132    Mn1584   2.547       .  S
Cl1132    Mn1595   2.536       .  S
C1133      C1184   1.421       .  S
C1134      C1138   1.442       .  S
C1135      C1136   1.210       .  T
C1137      C1138   1.210       .  T
C1139      C1140   1.215       .  T
C1141      C1142   1.219       .  T
C1143      C1144   1.221       .  T
C1145      C1146   1.224       .  T
C1147      C1148   1.214       .  T
C1149      C1150   1.215       .  T
C1151      C1596   1.447       .  S
C1151      C1152   1.214       .  T
C1153      C1440   1.445       .  S
C1153      C1154   1.212       .  T
C1157      C1158   1.215   1_455  T
C1159      C1160   1.334       .  D
C1159      H1161   1.088       .  S
C1160      H1162   1.087       .  S
C1163      C1164   1.341       .  D
C1163      H1165   1.092       .  S
C1164      H1166   1.082       .  S
C1167      C1168   1.349       .  D
C1167      H1169   1.088       .  S
C1168      H1170   1.086       .  S
C1171      C1172   1.345       .  D
C1171      H1173   1.089       .  S
C1172      H1174   1.084       .  S
C1175      C1176   1.347       .  D
C1175      H1177   1.079       .  S
C1176      H1178   1.088       .  S
C1179      C1180   1.350       .  D
C1179      H1181   1.087       .  S
C1180      H1182   1.085       .  S
C1183      C1184   1.325       .  D
C1183      H1185   1.091       .  S
C1184      H1186   1.081       .  S
C1187      C1188   1.339       .  D
C1187      H1189   1.087       .  S
C1188      H1190   1.083       .  S
C1191      C1414   1.507       .  S
C1191      C1417   1.516       .  S
C1191      C1421   1.499       .  S
C1191      C1425   1.517       .  S
C1192      C1397   1.496       .  S
C1192      C1401   1.491       .  S
C1192      C1405   1.513       .  S
C1192      C1409   1.501       .  S
N1193      N1194   1.316       .  A
N1193      N1199   1.313       .  A
N1194      C1201   1.344   1_554  A
N1195      N1673   1.313       .  A
N1195      N1196   1.317       .  A
N1195     Mn1211   2.175       .  S
N1196      C1678   1.345       .  A
N1197      N1671   1.313   1_545  A
N1197      N1198   1.328       .  A
N1197     Mn1222   2.233       .  S
N1198      C1202   1.361   1_545  A
N1199      N1200   1.330   1_554  A
N1199     Mn1449   2.250   1_545  S
N1200      C1201   1.363       .  A
C1201      C1385   1.448       .  S
C1202      N1672   1.345       .  A
C1202      C1867   1.445       .  S
N1203      N1209   1.319       .  A
N1203      N1204   1.322       .  A
N1204      C1212   1.348       .  A
N1205      N1206   1.311       .  A
N1205      N1207   1.314       .  A
N1206      C1213   1.344       .  A
N1207      N1208   1.313       .  A
N1208      C1213   1.347       .  A
N1209      N1210   1.325       .  A
N1209     Mn1211   2.222       .  S
N1210      C1212   1.354       .  A
Mn1211     N1437   2.250       .  S
C1212      C1394   1.448       .  S
C1213      C1413   1.430       .  S
N1214      N1215   1.313       .  A
N1214     Mn1222   2.161   1_455  S
N1216      N1217   1.327       .  A
N1216     Mn1234   2.230       .  S
N1218      N1219   1.322   1_454  A
N1219      C1224   1.347   1_655  A
N1220      N1221   1.313       .  A
N1221      C1223   1.349       .  A
Mn1222    Cl1473   2.540   1_545  S
C1223      C1410   1.436       .  S
C1224      C1395   1.451       .  S
N1225      N1226   1.328       .  A
N1225      N1231   1.314       .  A
N1225     Mn1233   2.235       .  S
N1226      C1236   1.361       .  A
N1227      N1228   1.331       .  A
N1227      N1229   1.314       .  A
N1227     Mn1472   2.255       .  S
N1228      C1237   1.364       .  A
N1229      N1230   1.316       .  A
N1230      C1237   1.343       .  A
N1231      N1708   1.318       .  A
N1231     Mn1710   2.185       .  S
N1232      N1707   1.318       .  A
N1232      C1712   1.347       .  A
Mn1234     N1465   2.255   1_546  S
Mn1234     N1707   2.185       .  S
Cl1235    Mn1460   2.540       .  S
C1236      N1708   1.347       .  A
C1236      C1390   1.449       .  S
C1237      C1387   1.449       .  S
N1238      N1239   1.317       .  A
N1238      N1244   1.315       .  A
N1239      C1246   1.344   1_554  A
N1240      N1242   1.316       .  A
N1240      N1241   1.321       .  A
N1240     Mn1256   2.199       .  S
N1241      C1247   1.348       .  A
N1242      N1243   1.333       .  A
N1242     Mn1267   2.260       .  S
N1243      C1247   1.365       .  A
N1244      N1245   1.329   1_554  A
N1245      C1246   1.363       .  A
C1246      C1386   1.448       .  S
C1247      C1384   1.466       .  S
N1248      N1254   1.319       .  A
N1248      N1249   1.322       .  A
N1249      C1257   1.348       .  A
N1250      N1251   1.316       .  A
N1250      N1252   1.317       .  A
N1251      C1258   1.347       .  A
N1252      N1253   1.316       .  A
N1252     Mn1278   2.187       .  S
N1253      C1258   1.349       .  A
N1254      N1255   1.326       .  A
N1254     Mn1256   2.228       .  S
N1255      C1257   1.356       .  A
C1257      C1377   1.451       .  S
C1258      C1418   1.452       .  S
N1259      N1260   1.318       .  A
N1259      N1265   1.316       .  A
N1259     Mn1267   2.191       .  S
N1260      C1268   1.351       .  A
N1261      N1263   1.320   1_556  A
N1261      N1262   1.326       .  A
N1261     Mn1279   2.229       .  S
N1262      C1269   1.355       .  A
N1263      N1264   1.325   1_554  A
N1264      C1269   1.351       .  A
N1265      N1266   1.314       .  A
N1266      C1268   1.345       .  A
C1268      C1406   1.449       .  S
C1269      C1380   1.458       .  S
N1270      N1271   1.332       .  A
N1270      N1276   1.315       .  A
N1270     Mn1278   2.252       .  S
N1271      C1281   1.364       .  A
N1272      N1273   1.330       .  A
N1272      N1274   1.315       .  A
N1273      C1282   1.364       .  A
N1274      N1275   1.317       .  A
N1275      C1282   1.344       .  A
N1276      N1277   1.319       .  A
N1276     Mn1279   2.189       .  S
N1277      C1281   1.346       .  A
Mn1278    Cl1280   2.551   1_556  S
Mn1279    Cl1280   2.538   1_556  S
C1281      C1382   1.460       .  S
C1282      C1388   1.450       .  S
N1283      N1284   1.315       .  A
N1283      N1289   1.317       .  A
N1284      C1291   1.346       .  A
N1285      N1287   1.319       .  A
N1285      N1286   1.328       .  A
N1285     Mn1301   2.248       .  S
N1286      C1292   1.359       .  A
N1287      N1288   1.320   1_655  A
N1288      C1292   1.345   1_455  A
N1289      N1290   1.313       .  A
N1289     Mn1301   2.182       .  S
N1290      C1291   1.349       .  A
C1291      C1426   1.447       .  S
C1292      C1396   1.450       .  S
N1293      N1299   1.318       .  A
N1293      N1294   1.324       .  A
N1293     Mn1323   2.218       .  S
N1294      C1302   1.352       .  A
N1295      N1296   1.334       .  A
N1295      N1297   1.318       .  A
N1295     Mn1301   2.277       .  S
N1296      C1303   1.365       .  A
N1297      N1298   1.320       .  A
N1297     Mn1323   2.183       .  S
N1298      C1303   1.345       .  A
N1299      N1300   1.319       .  A
N1299     Mn1301   2.179       .  S
N1300      C1302   1.344       .  A
Mn1301    Cl1325   2.539       .  S
C1302      C1373   1.442       .  S
C1303      C1383   1.465       .  S
N1304      N1305   1.320       .  A
N1304      N1310   1.315       .  A
N1304     Mn1312   2.181       .  S
N1305      C1313   1.347       .  A
N1306      N1308   1.319       .  A
N1306      N1307   1.318       .  A
N1306     Mn1324   2.172       .  S
N1307      C1314   1.343       .  A
N1308      N1309   1.326       .  A
N1308     Mn1312   2.231       .  S
N1309      C1314   1.354       .  A
N1310      N1311   1.331       .  A
N1310     Mn1324   2.255       .  S
N1311      C1313   1.362       .  A
C1313      C1381   1.460       .  S
C1314      C1375   1.442       .  S
N1315      N1316   1.320       .  A
N1315      N1321   1.317       .  A
N1316      C1326   1.346       .  A
N1317      N1318   1.308       .  A
N1317      N1319   1.314       .  A
N1317     Mn1324   2.163       .  S
N1318      C1327   1.347       .  A
N1321      N1322   1.327       .  A
N1321     Mn1324   2.235       .  S
N1322      C1326   1.357       .  A
Mn1323    Cl1325   2.546       .  S
C1326      C1393   1.448       .  S
C1327      C1402   1.442       .  S
N1328      N1329   1.326       .  A
N1328      N1334   1.319       .  A
N1328     Mn1357   2.229       .  S
N1329      C1336   1.356       .  A
N1330      N1332   1.316       .  A
N1330      N1331   1.314       .  A
N1330     Mn1346   2.147       .  S
N1331      C1337   1.343       .  A
N1332      N1333   1.310       .  A
N1332     Mn1357   2.176       .  S
N1333      C1337   1.347       .  A
N1334      N1335   1.318       .  A
N1334     Mn1346   2.191       .  S
N1335      C1336   1.344       .  A
C1336      C1374   1.442       .  S
C1337      C1398   1.436       .  S
N1338      N1344   1.318       .  A
N1338      N1339   1.320       .  A
N1338     Mn1368   2.183       .  S
N1339      C1347   1.347       .  A
N1340      N1341   1.315       .  A
N1340      N1342   1.312       .  A
N1340     Mn1822   2.159       .  S
N1341      C1348   1.344       .  A
N1342      N1343   1.329       .  A
N1342     Mn1368   2.252       .  S
N1343      C1348   1.362       .  A
N1344      N1345   1.327       .  A
N1344     Mn1822   2.236       .  S
N1345      C1347   1.356       .  A
Mn1346     N1816   2.159   1_545  S
Mn1346     N1820   2.236   1_545  S
Mn1346    Cl1846   2.547   1_545  S
C1347      C1378   1.451       .  S
C1348      C1392   1.444       .  S
N1349      N1350   1.330       .  A
N1349      N1831   1.316   1_545  A
N1349     Mn1357   2.258       .  S
N1350      C1358   1.364       .  A
N1351      N1353   1.317       .  A
N1351      N1352   1.328       .  A
N1351     Mn1845   2.234   1_545  S
N1352      C1359   1.357       .  A
N1353      N1354   1.322       .  A
N1353     Mn1357   2.196       .  S
N1354      C1359   1.348       .  A
N1355      N1825   1.316       .  A
N1355      N1356   1.315       .  A
N1355     Mn1369   2.171       .  S
N1356      C1834   1.344       .  A
Mn1357    Cl1846   2.536   1_545  S
C1358      N1832   1.344   1_545  A
C1358      C1865   1.447       .  S
C1359      C1379   1.457       .  S
N1360      N1361   1.306       .  A
N1360      N1366   1.316       .  A
N1360     Mn1368   2.136       .  S
N1361      C1371   1.333       .  A
N1362      N1363   1.318       .  A
N1362      N1364   1.318       .  A
N1362     Mn1369   2.186       .  S
N1363      C1372   1.342       .  A
N1364      N1365   1.327       .  A
N1364     Mn1368   2.229       .  S
N1365      C1372   1.357       .  A
N1366      N1367   1.318       .  A
N1366     Mn1369   2.173       .  S
N1367      C1371   1.350       .  A
Mn1368    Cl1370   2.534       .  S
Mn1369     N1827   2.234       .  S
Mn1369    Cl1370   2.549       .  S
Cl1370    Mn1822   2.547       .  S
Cl1370    Mn1833   2.536       .  S
C1371      C1422   1.421       .  S
C1372      C1376   1.442       .  S
C1373      C1374   1.210       .  T
C1375      C1376   1.210       .  T
C1377      C1378   1.215       .  T
C1379      C1380   1.219       .  T
C1381      C1382   1.221       .  T
C1383      C1384   1.224       .  T
C1385      C1386   1.214       .  T
C1387      C1388   1.215       .  T
C1389      C1834   1.447       .  S
C1389      C1390   1.214       .  T
C1391      C1678   1.445       .  S
C1391      C1392   1.212       .  T
C1395      C1396   1.215   1_455  T
C1397      C1398   1.334       .  D
C1397      H1399   1.088       .  S
C1398      H1400   1.087       .  S
C1401      C1402   1.340       .  D
C1401      H1403   1.092       .  S
C1402      H1404   1.082       .  S
C1405      C1406   1.348       .  D
C1405      H1407   1.088       .  S
C1406      H1408   1.086       .  S
C1409      C1410   1.345       .  D
C1409      H1411   1.089       .  S
C1410      H1412   1.084       .  S
C1413      C1414   1.347       .  D
C1413      H1415   1.079       .  S
C1414      H1416   1.088       .  S
C1417      C1418   1.350       .  D
C1417      H1419   1.087       .  S
C1418      H1420   1.085       .  S
C1421      C1422   1.325       .  D
C1421      H1423   1.091       .  S
C1422      H1424   1.081       .  S
C1425      C1426   1.339       .  D
C1425      H1427   1.087       .  S
C1426      H1428   1.083       .  S
C1429      C1652   1.507       .  S
C1429      C1655   1.516       .  S
C1429      C1659   1.499       .  S
C1429      C1663   1.517       .  S
C1430      C1635   1.496       .  S
C1430      C1639   1.491       .  S
C1430      C1643   1.513       .  S
C1430      C1647   1.501       .  S
N1431      N1432   1.316       .  A
N1431      N1437   1.313       .  A
N1431     Mn1698   2.170       .  S
N1432      C1439   1.344       .  A
N1433      N1434   1.317       .  A
N1433     Mn1449   2.175       .  S
N1435      N1436   1.328       .  A
N1435     Mn1460   2.233       .  S
N1436      C1440   1.361       .  A
N1437      N1438   1.330       .  A
N1438      C1439   1.363       .  A
C1439      C1623   1.448       .  S
N1441      N1447   1.319       .  A
N1441      N1442   1.322       .  A
N1442      C1450   1.348       .  A
N1443      N1444   1.311       .  A
N1443      N1445   1.314       .  A
N1443     Mn1687   2.157       .  S
N1444      C1451   1.344       .  A
N1445      N1446   1.313       .  A
N1446      C1451   1.347       .  A
N1447      N1448   1.325       .  A
N1447     Mn1449   2.222       .  S
N1448      C1450   1.354       .  A
Mn1449     N1681   2.157   1_554  S
Mn1449    Cl1711   2.531       .  S
C1450      C1632   1.448       .  S
C1451      C1651   1.430       .  S
N1452      N1453   1.313       .  A
N1452     Mn1460   2.161   1_455  S
N1454      N1455   1.327       .  A
N1454     Mn1472   2.230       .  S
N1456      N1457   1.322   1_455  A
N1456     Mn1698   2.206   1_455  S
N1457      C1462   1.347   1_655  A
N1458      N1459   1.313       .  A
N1458     Mn1710   2.175   1_554  S
N1459      C1461   1.349       .  A
Mn1460     N1669   2.170       .  S
Mn1460     N1694   2.206   1_655  S
C1461      C1648   1.436       .  S
C1462      C1633   1.451       .  S
N1463      N1464   1.328       .  A
N1463      N1469   1.314   1_565  A
N1463     Mn1471   2.235       .  S
N1464      C1474   1.361   1_565  A
N1465      N1466   1.331       .  A
N1465      N1467   1.314   1_554  A
N1466      C1475   1.365       .  A
N1467      N1468   1.316       .  A
N1467     Mn1709   2.170       .  S
N1468      C1475   1.343   1_556  A
Mn1471     N1705   2.170       .  S
Mn1472     N1696   2.175       .  S
Cl1473    Mn1687   2.531       .  S
C1474      C1628   1.449       .  S
C1475      C1625   1.449       .  S
N1476      N1477   1.317       .  A
N1476      N1482   1.315       .  A
N1476     Mn1743   2.176       .  S
N1477      C1484   1.344       .  A
N1478      N1480   1.316       .  A
N1478      N1479   1.321       .  A
N1478     Mn1494   2.199       .  S
N1479      C1485   1.348       .  A
N1480      N1481   1.333       .  A
N1480     Mn1505   2.260       .  S
N1481      C1485   1.365       .  A
N1482      N1483   1.329       .  A
N1482     Mn1732   2.250       .  S
N1483      C1484   1.363       .  A
C1484      C1624   1.448       .  S
C1485      C1622   1.466       .  S
N1486      N1492   1.319   1_556  A
N1486      N1487   1.322   1_556  A
N1486     Mn1754   2.214       .  S
N1487      C1495   1.348       .  A
N1488      N1489   1.316       .  A
N1488      N1490   1.317       .  A
N1488     Mn1732   2.183       .  S
N1489      C1496   1.347       .  A
N1490      N1491   1.316       .  A
N1490     Mn1516   2.187       .  S
N1491      C1496   1.349       .  A
N1492      N1493   1.326       .  A
N1492     Mn1494   2.228       .  S
N1493      C1495   1.356       .  A
Mn1494     N1720   2.250       .  S
Mn1494     N1726   2.183   1_554  S
Mn1494    Cl1756   2.541       .  S
C1495      C1615   1.451       .  S
C1496      C1656   1.451       .  S
N1497      N1498   1.318       .  A
N1497      N1503   1.316       .  A
N1497     Mn1505   2.191       .  S
N1498      C1506   1.351       .  A
N1499      N1501   1.320       .  A
N1499      N1500   1.326       .  A
N1499     Mn1517   2.229       .  S
N1500      C1507   1.355       .  A
N1501      N1502   1.325       .  A
N1501     Mn1743   2.226       .  S
N1502      C1507   1.351       .  A
N1503      N1504   1.314       .  A
N1503     Mn1755   2.173   1_554  S
N1504      C1506   1.345       .  A
Mn1505     N1714   2.176       .  S
Mn1505     N1739   2.226       .  S
Mn1505    Cl1756   2.554       .  S
C1506      C1644   1.449       .  S
C1507      C1618   1.458       .  S
N1508      N1509   1.332       .  A
N1508      N1514   1.315       .  A
N1508     Mn1516   2.252       .  S
N1509      C1519   1.364       .  A
N1510      N1511   1.330   1_556  A
N1510      N1512   1.315       .  A
N1510     Mn1755   2.253       .  S
N1511      C1520   1.364       .  A
N1512      N1513   1.317       .  A
N1512     Mn1754   2.177       .  S
N1513      C1520   1.344   1_556  A
N1514      N1515   1.319       .  A
N1514     Mn1517   2.189       .  S
N1515      C1519   1.346       .  A
Mn1516     N1724   2.214       .  S
Mn1516     N1750   2.177       .  S
Mn1516    Cl1518   2.551       .  S
Mn1517     N1741   2.173       .  S
Mn1517     N1748   2.253       .  S
Mn1517    Cl1518   2.538       .  S
Cl1518    Mn1732   2.541       .  S
Cl1518    Mn1743   2.554       .  S
C1519      C1620   1.460       .  S
C1520      C1626   1.450       .  S
N1521      N1522   1.315       .  A
N1521      N1527   1.317       .  A
N1522      C1529   1.346       .  A
N1523      N1525   1.319       .  A
N1523      N1524   1.328       .  A
N1523     Mn1539   2.248       .  S
N1524      C1530   1.359       .  A
N1525      N1526   1.320   1_655  A
N1526      C1530   1.345   1_455  A
N1527      N1528   1.313       .  A
N1527     Mn1539   2.182       .  S
N1528      C1529   1.349       .  A
C1529      C1664   1.447       .  S
C1530      C1634   1.450       .  S
N1531      N1537   1.318       .  A
N1531      N1532   1.324       .  A
N1531     Mn1561   2.218       .  S
N1532      C1540   1.352       .  A
N1533      N1534   1.334       .  A
N1533      N1535   1.318       .  A
N1533     Mn1539   2.277       .  S
N1534      C1541   1.365       .  A
N1535      N1536   1.320       .  A
N1535     Mn1561   2.183       .  S
N1536      C1541   1.345       .  A
N1537      N1538   1.319       .  A
N1537     Mn1539   2.179       .  S
N1538      C1540   1.344       .  A
Mn1539    Cl1563   2.538       .  S
C1540      C1611   1.442       .  S
C1541      C1621   1.465       .  S
N1542      N1543   1.320       .  A
N1542      N1548   1.315       .  A
N1542     Mn1550   2.181       .  S
N1543      C1551   1.347       .  A
N1544      N1546   1.319       .  A
N1544      N1545   1.318       .  A
N1544     Mn1562   2.172       .  S
N1545      C1552   1.343       .  A
N1546      N1547   1.326       .  A
N1546     Mn1550   2.231       .  S
N1547      C1552   1.354       .  A
N1548      N1549   1.331       .  A
N1548     Mn1562   2.255       .  S
N1549      C1551   1.362       .  A
C1551      C1619   1.460       .  S
C1552      C1613   1.442       .  S
N1553      N1554   1.320       .  A
N1553      N1559   1.317       .  A
N1554      C1564   1.346       .  A
N1555      N1556   1.308       .  A
N1555      N1557   1.314       .  A
N1555     Mn1562   2.163       .  S
N1556      C1565   1.347       .  A
N1559      N1560   1.327       .  A
N1559     Mn1562   2.235       .  S
N1560      C1564   1.357       .  A
Mn1561    Cl1563   2.546       .  S
C1564      C1631   1.448       .  S
C1565      C1640   1.442       .  S
N1566      N1567   1.326       .  A
N1566      N1572   1.319       .  A
N1566     Mn1595   2.229       .  S
N1567      C1574   1.356       .  A
N1568      N1570   1.316       .  A
N1568      N1569   1.314       .  A
N1568     Mn1584   2.147       .  S
N1569      C1575   1.343       .  A
N1570      N1571   1.310       .  A
N1570     Mn1595   2.176       .  S
N1571      C1575   1.347       .  A
N1572      N1573   1.318       .  A
N1572     Mn1584   2.191       .  S
N1573      C1574   1.344       .  A
C1574      C1612   1.442       .  S
C1575      C1636   1.436       .  S
N1576      N1582   1.318       .  A
N1576      N1577   1.320       .  A
N1576     Mn1606   2.183       .  S
N1577      C1585   1.347       .  A
N1578      N1579   1.315   1_565  A
N1578      N1580   1.312       .  A
N1579      C1586   1.344   1_545  A
N1580      N1581   1.329       .  A
N1580     Mn1606   2.252       .  S
N1581      C1586   1.362       .  A
N1582      N1583   1.327       .  A
N1583      C1585   1.356       .  A
C1585      C1616   1.451       .  S
C1586      C1630   1.444       .  S
N1587      N1588   1.330       .  A
N1587     Mn1595   2.258       .  S
N1588      C1596   1.364       .  A
N1589      N1591   1.317       .  A
N1589      N1590   1.328       .  A
N1590      C1597   1.357       .  A
N1591      N1592   1.322       .  A
N1591     Mn1595   2.196       .  S
N1592      C1597   1.348       .  A
N1593      N1594   1.315       .  A
N1593     Mn1607   2.171       .  S
C1597      C1617   1.457       .  S
N1598      N1599   1.306       .  A
N1598      N1604   1.316       .  A
N1598     Mn1606   2.136       .  S
N1599      C1609   1.333       .  A
N1600      N1601   1.318       .  A
N1600      N1602   1.318       .  A
N1600     Mn1607   2.186       .  S
N1601      C1610   1.342       .  A
N1602      N1603   1.327       .  A
N1602     Mn1606   2.229       .  S
N1603      C1610   1.357       .  A
N1604      N1605   1.318       .  A
N1604     Mn1607   2.173       .  S
N1605      C1609   1.350       .  A
Mn1606    Cl1608   2.534       .  S
Mn1607    Cl1608   2.549       .  S
C1609      C1660   1.421       .  S
C1610      C1614   1.442       .  S
C1611      C1612   1.210       .  T
C1613      C1614   1.210       .  T
C1615      C1616   1.215       .  T
C1617      C1618   1.219       .  T
C1619      C1620   1.221       .  T
C1621      C1622   1.224       .  T
C1623      C1624   1.214       .  T
C1625      C1626   1.215       .  T
C1627      C1628   1.214       .  T
C1629      C1630   1.212       .  T
C1633      C1634   1.215   1_455  T
C1635      C1636   1.334       .  D
C1635      H1637   1.088       .  S
C1636      H1638   1.087       .  S
C1639      C1640   1.340       .  D
C1639      H1641   1.092       .  S
C1640      H1642   1.082       .  S
C1643      C1644   1.349       .  D
C1643      H1645   1.088       .  S
C1644      H1646   1.086       .  S
C1647      C1648   1.345       .  D
C1647      H1649   1.089       .  S
C1648      H1650   1.084       .  S
C1651      C1652   1.347       .  D
C1651      H1653   1.079       .  S
C1652      H1654   1.088       .  S
C1655      C1656   1.350       .  D
C1655      H1657   1.087       .  S
C1656      H1658   1.085       .  S
C1659      C1660   1.325       .  D
C1659      H1661   1.091       .  S
C1660      H1662   1.081       .  S
C1663      C1664   1.339       .  D
C1663      H1665   1.087       .  S
C1664      H1666   1.083       .  S
C1667      C1890   1.507       .  S
C1667      C1893   1.516       .  S
C1667      C1897   1.500       .  S
C1667      C1901   1.517       .  S
C1668      C1873   1.496       .  S
C1668      C1877   1.491       .  S
C1668      C1881   1.513       .  S
C1668      C1885   1.501       .  S
N1669      N1670   1.316       .  A
N1669      N1675   1.313       .  A
N1670      C1677   1.344   1_554  A
N1671      N1672   1.317       .  A
N1671     Mn1687   2.175       .  S
N1673      N1674   1.328       .  A
N1673     Mn1698   2.233       .  S
N1674      C1678   1.361       .  A
N1675      N1676   1.330   1_554  A
N1676      C1677   1.363       .  A
C1677      C1861   1.448       .  S
N1679      N1685   1.319       .  A
N1679      N1680   1.322       .  A
N1680      C1688   1.348       .  A
N1681      N1682   1.311       .  A
N1681      N1683   1.314       .  A
N1682      C1689   1.344       .  A
N1683      N1684   1.313       .  A
N1684      C1689   1.347       .  A
N1685      N1686   1.325       .  A
N1685     Mn1687   2.222       .  S
N1686      C1688   1.354       .  A
C1688      C1870   1.448       .  S
C1689      C1889   1.430       .  S
N1690      N1691   1.313       .  A
N1690     Mn1698   2.161   1_455  S
N1692      N1693   1.327       .  A
N1692     Mn1710   2.230       .  S
N1694      N1695   1.322   1_454  A
N1695      C1700   1.347   1_655  A
N1696      N1697   1.313       .  A
N1697      C1699   1.349       .  A
C1699      C1886   1.436       .  S
C1700      C1871   1.451       .  S
N1701      N1702   1.328       .  A
N1701      N1707   1.314   1_565  A
N1701     Mn1709   2.235       .  S
N1702      C1712   1.361   1_565  A
N1703      N1704   1.331       .  A
N1703      N1705   1.314       .  A
N1704      C1713   1.365       .  A
N1705      N1706   1.316       .  A
N1706      C1713   1.343       .  A
C1712      C1866   1.449       .  S
C1713      C1863   1.449       .  S
N1714      N1715   1.317       .  A
N1714      N1720   1.315       .  A
N1715      C1722   1.344   1_554  A
N1716      N1718   1.316       .  A
N1716      N1717   1.321       .  A
N1716     Mn1732   2.199       .  S
N1717      C1723   1.348       .  A
N1718      N1719   1.333       .  A
N1718     Mn1743   2.260       .  S
N1719      C1723   1.365       .  A
N1720      N1721   1.329   1_554  A
N1721      C1722   1.363       .  A
C1722      C1862   1.448       .  S
C1723      C1860   1.466       .  S
N1724      N1730   1.319       .  A
N1724      N1725   1.322       .  A
N1725      C1733   1.348       .  A
N1726      N1727   1.316       .  A
N1726      N1728   1.317       .  A
N1727      C1734   1.347       .  A
N1728      N1729   1.316       .  A
N1728     Mn1754   2.187       .  S
N1729      C1734   1.349       .  A
N1730      N1731   1.326       .  A
N1730     Mn1732   2.228       .  S
N1731      C1733   1.356       .  A
C1733      C1853   1.451       .  S
C1734      C1894   1.451       .  S
N1735      N1736   1.318       .  A
N1735      N1741   1.316       .  A
N1735     Mn1743   2.191       .  S
N1736      C1744   1.351       .  A
N1737      N1739   1.320   1_556  A
N1737      N1738   1.326       .  A
N1737     Mn1755   2.229       .  S
N1738      C1745   1.355       .  A
N1739      N1740   1.325   1_554  A
N1740      C1745   1.351       .  A
N1741      N1742   1.314       .  A
N1742      C1744   1.345       .  A
C1744      C1882   1.449       .  S
C1745      C1856   1.458       .  S
N1746      N1747   1.332       .  A
N1746      N1752   1.315       .  A
N1746     Mn1754   2.252       .  S
N1747      C1757   1.364       .  A
N1748      N1749   1.330       .  A
N1748      N1750   1.315       .  A
N1749      C1758   1.364       .  A
N1750      N1751   1.317       .  A
N1751      C1758   1.344       .  A
N1752      N1753   1.319       .  A
N1752     Mn1755   2.189       .  S
N1753      C1757   1.346       .  A
Mn1754    Cl1756   2.551   1_556  S
Mn1755    Cl1756   2.538   1_556  S
C1757      C1858   1.460       .  S
C1758      C1864   1.450       .  S
N1759      N1760   1.315       .  A
N1759      N1765   1.317       .  A
N1760      C1767   1.346       .  A
N1761      N1763   1.319       .  A
N1761      N1762   1.328       .  A
N1761     Mn1777   2.248       .  S
N1762      C1768   1.359       .  A
N1763      N1764   1.320   1_655  A
N1764      C1768   1.345   1_455  A
N1765      N1766   1.313       .  A
N1765     Mn1777   2.182       .  S
N1766      C1767   1.349       .  A
C1767      C1902   1.447       .  S
C1768      C1872   1.450       .  S
N1769      N1775   1.318       .  A
N1769      N1770   1.324       .  A
N1769     Mn1799   2.218       .  S
N1770      C1778   1.352       .  A
N1771      N1772   1.334       .  A
N1771      N1773   1.318       .  A
N1771     Mn1777   2.277       .  S
N1772      C1779   1.365       .  A
N1773      N1774   1.320       .  A
N1773     Mn1799   2.183       .  S
N1774      C1779   1.345       .  A
N1775      N1776   1.319       .  A
N1775     Mn1777   2.179       .  S
N1776      C1778   1.344       .  A
Mn1777    Cl1801   2.538       .  S
C1778      C1849   1.442       .  S
C1779      C1859   1.465       .  S
N1780      N1781   1.320       .  A
N1780      N1786   1.315       .  A
N1780     Mn1788   2.181       .  S
N1781      C1789   1.347       .  A
N1782      N1784   1.319       .  A
N1782      N1783   1.318       .  A
N1782     Mn1800   2.172       .  S
N1783      C1790   1.343       .  A
N1784      N1785   1.326       .  A
N1784     Mn1788   2.231       .  S
N1785      C1790   1.354       .  A
N1786      N1787   1.331       .  A
N1786     Mn1800   2.255       .  S
N1787      C1789   1.362       .  A
C1789      C1857   1.460       .  S
C1790      C1851   1.442       .  S
N1791      N1792   1.320       .  A
N1791      N1797   1.317       .  A
N1792      C1802   1.346       .  A
N1793      N1794   1.308       .  A
N1793      N1795   1.314       .  A
N1793     Mn1800   2.163       .  S
N1794      C1803   1.347       .  A
N1797      N1798   1.327       .  A
N1797     Mn1800   2.235       .  S
N1798      C1802   1.357       .  A
Mn1799    Cl1801   2.546       .  S
C1802      C1869   1.448       .  S
C1803      C1878   1.442       .  S
N1804      N1805   1.326       .  A
N1804      N1810   1.319       .  A
N1804     Mn1833   2.229       .  S
N1805      C1812   1.356       .  A
N1806      N1808   1.316       .  A
N1806      N1807   1.314       .  A
N1806     Mn1822   2.147       .  S
N1807      C1813   1.343       .  A
N1808      N1809   1.310       .  A
N1808     Mn1833   2.176       .  S
N1809      C1813   1.347       .  A
N1810      N1811   1.318       .  A
N1810     Mn1822   2.191       .  S
N1811      C1812   1.344       .  A
C1812      C1850   1.442       .  S
C1813      C1874   1.436       .  S
N1814      N1820   1.318       .  A
N1814      N1815   1.320       .  A
N1814     Mn1844   2.183       .  S
N1815      C1823   1.347       .  A
N1816      N1817   1.315   1_565  A
N1816      N1818   1.312       .  A
N1817      C1824   1.344   1_545  A
N1818      N1819   1.329       .  A
N1818     Mn1844   2.252       .  S
N1819      C1824   1.362       .  A
N1820      N1821   1.327       .  A
N1821      C1823   1.356       .  A
C1823      C1854   1.451       .  S
C1824      C1868   1.444       .  S
N1825      N1826   1.330       .  A
N1825     Mn1833   2.258       .  S
N1826      C1834   1.364       .  A
N1827      N1829   1.317       .  A
N1827      N1828   1.328       .  A
N1828      C1835   1.357       .  A
N1829      N1830   1.322       .  A
N1829     Mn1833   2.196       .  S
N1830      C1835   1.348       .  A
N1831      N1832   1.315       .  A
N1831     Mn1845   2.171       .  S
C1835      C1855   1.457       .  S
N1836      N1837   1.306       .  A
N1836      N1842   1.316       .  A
N1836     Mn1844   2.136       .  S
N1837      C1847   1.333       .  A
N1838      N1839   1.318       .  A
N1838      N1840   1.318       .  A
N1838     Mn1845   2.186       .  S
N1839      C1848   1.342       .  A
N1840      N1841   1.327       .  A
N1840     Mn1844   2.229       .  S
N1841      C1848   1.357       .  A
N1842      N1843   1.318       .  A
N1842     Mn1845   2.173       .  S
N1843      C1847   1.350       .  A
Mn1844    Cl1846   2.534       .  S
Mn1845    Cl1846   2.549       .  S
C1847      C1898   1.421       .  S
C1848      C1852   1.442       .  S
C1849      C1850   1.210       .  T
C1851      C1852   1.210       .  T
C1853      C1854   1.215       .  T
C1855      C1856   1.219       .  T
C1857      C1858   1.221       .  T
C1859      C1860   1.224       .  T
C1861      C1862   1.214       .  T
C1863      C1864   1.215       .  T
C1865      C1866   1.214       .  T
C1867      C1868   1.212       .  T
C1871      C1872   1.215   1_455  T
C1873      C1874   1.334       .  D
C1873      H1875   1.088       .  S
C1874      H1876   1.087       .  S
C1877      C1878   1.340       .  D
C1877      H1879   1.092       .  S
C1878      H1880   1.082       .  S
C1881      C1882   1.349       .  D
C1881      H1883   1.088       .  S
C1882      H1884   1.086       .  S
C1885      C1886   1.345       .  D
C1885      H1887   1.089       .  S
C1886      H1888   1.084       .  S
C1889      C1890   1.347       .  D
C1889      H1891   1.079       .  S
C1890      H1892   1.088       .  S
C1893      C1894   1.350       .  D
C1893      H1895   1.087       .  S
C1894      H1896   1.085       .  S
C1897      C1898   1.325       .  D
C1897      H1899   1.091       .  S
C1898      H1900   1.081       .  S
C1901      C1902   1.339       .  D
C1901      H1903   1.087       .  S
C1902      H1904   1.083       .  S
