geometry optimzed in LAMMPS
_audit_creation_date              2020-11-30 
_audit_creation_method            'lammps2cif' 
_symmetry_space_group_name_H-M    'P1' 
_symmetry_Int_Tables_number       1 
_symmetry_cell_setting            triclinic 
loop_ 
_symmetry_equiv_pos_as_xyz 
  x,y,z 
_cell_length_a                    30.144992418756534 
_cell_length_b                    30.652228492818395 
_cell_length_c                    29.89188021607145 
_cell_angle_alpha                 91.86690812855592 
_cell_angle_beta                  89.47640164313289 
_cell_angle_gamma                 90.93698724359633 
loop_ 
_atom_site_label 
_atom_site_type_symbol 
_atom_site_fract_x 
_atom_site_fract_y 
_atom_site_fract_z 
_atom_site_charge 
C1          C  0.36115645  0.36739090  0.36289135    -0.00880
C2          C  0.11441196  0.13231878  0.09054763    -0.00880
O3          O  0.49749461  0.43447007  0.39019980    -0.78530
O4          O  0.41719865  0.04380125  0.98215168    -0.78560
O5          O  0.39808604  0.46411848  0.50795878    -0.78560
O6          O  0.53634544  0.08049841  0.40526201    -0.78510
O7          O  0.39944088  0.50128227  0.02600753    -0.78630
O8          O  0.49178939  0.02466773  0.38301933    -0.78550
O9          O  0.46991750  0.08501461  0.95565402    -0.78530
O10         O  0.44150718  0.41922004  0.43734729    -0.78570
C11         C  0.45861159  0.42180280  0.39846494     1.11160
C12         C  0.42953869  0.07875900  0.96495586     1.11040
C13         C  0.38200382  0.48228224  0.54477269     1.11180
C14         C  0.51114741  0.06248267  0.37557720     1.11060
O15         O  0.05399122  0.96554352  0.37121049    -0.78530
O16         O  0.47133031  0.47123615  0.08131604    -0.78610
O17         O  0.02304700  0.40953336  0.49269229    -0.78550
O18         O  0.03921868  0.07095250  0.00496443    -0.78530
O19         O  0.48688207  0.05952056  0.04706942    -0.78580
O20         O  0.06658141  0.43856509  0.44196164    -0.78540
O21         O  0.07951664  0.00923148  0.42714862    -0.78500
O22         O  0.44155346  0.39543143  0.53269013    -0.78570
Co23       Co  0.02861757  0.48407397  0.41331871     1.51530
Co24       Co  0.46006224  0.52067900  0.03774380     1.51690
Co25       Co  0.46317352  0.44004178  0.49553389     1.51570
Co26       Co  0.51733359  0.03806847  0.44561471     1.51470
O27         O  0.49156746  0.49346299  0.47223500    -1.40470
C28         C  0.08569844  0.98797264  0.38859765     1.11080
C29         C  0.98817606  0.42672450  0.07605698     1.11170
C30         C  0.05992157  0.41121811  0.47220322     1.11110
C31         C  0.01626373  0.07692026  0.04075922     1.11090
O32         O  0.28105625  0.30218189  0.43108992    -0.78530
O33         O  0.19663932  0.23779332  0.41137569    -0.78560
O34         O  0.27848348  0.21444001  0.38654436    -0.78560
O35         O  0.15940915  0.31446656  0.51014066    -0.78510
O36         O  0.23420185  0.15848486  0.39353855    -0.78630
O37         O  0.20791375  0.34020790  0.46239814    -0.78550
O38         O  0.14385128  0.23738393  0.46278909    -0.78530
O39         O  0.33908537  0.26623449  0.44198779    -0.78570
C40         C  0.32174076  0.30150238  0.43382563     1.11160
C41         C  0.15625194  0.24062590  0.42170915     1.11040
C42         C  0.25758757  0.18111169  0.36797645     1.11180
C43         C  0.16954987  0.34140999  0.48023925     1.11060
O44         O  0.23690197  0.33581431  0.04938809    -0.78530
O45         O  0.28068788  0.15423744  0.47125851    -0.78610
O46         O  0.31954839  0.22290624  0.51747224    -0.78550
O47         O  0.20530711  0.19443136  0.02459602    -0.78530
O48         O  0.18766043  0.16540907  0.46717491    -0.78580
O49         O  0.31916252  0.29563892  0.52230091    -0.78540
O50         O  0.21524013  0.27168208  0.07267961    -0.78500
O51         O  0.34050543  0.17951963  0.43878103    -0.78570
Co52       Co  0.26205849  0.31516190  0.49061286     1.51530
Co53       Co  0.23692647  0.20003725  0.44256726     1.51690
Co54       Co  0.29534644  0.21978096  0.45616763     1.51570
Co55       Co  0.18128957  0.25335523  0.51957272     1.51470
O56         O  0.24122885  0.25255150  0.48591948    -1.40470
C57         C  0.23107675  0.30992039  0.08106561     1.11080
C58         C  0.32167593  0.14833852  0.45824541     1.11170
C59         C  0.33529597  0.25879122  0.53324335     1.11110
C60         C  0.18969995  0.16537099  0.99878208     1.11090
O61         O  0.02133312  0.25094853  0.32356456    -0.78530
O62         O  0.48307266  0.31816056  0.14066787    -0.78560
O63         O  0.05549408  0.30625551  0.24450876    -0.78560
O64         O  0.44487256  0.29912437  0.28230355    -0.78510
O65         O  0.06282615  0.29544792  0.17098343    -0.78630
O66         O  0.43174256  0.23554593  0.30778056    -0.78550
O67         O  0.45556467  0.34210022  0.20522788    -0.78530
O68         O  0.08922942  0.24323264  0.29804148    -0.78570
C69         C  0.06369584  0.24923950  0.33131268     1.11160
C70         C  0.46978555  0.34941022  0.16602470     1.11040
C71         C  0.07073708  0.31808073  0.20683808     1.11180
C72         C  0.42599012  0.27550555  0.30981576     1.11060
O73         O  0.44573545  0.17637161  0.23742110    -0.78530
O74         O  0.03826371  0.20213159  0.16454468    -0.78610
O75         O  0.03989804  0.17496322  0.26813291    -0.78550
O76         O  0.40873218  0.27383108  0.15833323    -0.78530
O77         O  0.45760740  0.22796568  0.12924243    -0.78580
O78         O  0.48489880  0.17316234  0.31687997    -0.78540
O79         O  0.39396919  0.22650976  0.23391892    -0.78500
O80         O  0.08888760  0.22853190  0.20949456    -0.78570
Co81       Co  0.48376234  0.21548681  0.27378604     1.51530
Co82       Co  0.00871659  0.25673960  0.15559463     1.51690
Co83       Co  0.04363296  0.24384696  0.25539880     1.51570
Co84       Co  0.42905028  0.28415548  0.22108972     1.51470
O85         O  0.48786338  0.25376784  0.21861224    -1.40470
C86         C  0.40532686  0.18611638  0.23513182     1.11080
C87         C  0.07832991  0.20832088  0.17398053     1.11170
C88         C  0.01869053  0.15437564  0.29963880     1.11110
C89         C  0.42030394  0.24681840  0.12760582     1.11090
O90         O  0.30579183  0.46322673  0.29144122    -0.78530
O91         O  0.25026100  0.48778783  0.11206924    -0.78560
O92         O  0.24843546  0.39638309  0.20285611    -0.78560
O93         O  0.34144171  0.05726764  0.22254368    -0.78510
O94         O  0.28546462  0.42932979  0.15649166    -0.78630
O95         O  0.31013676  0.07071942  0.28764620    -0.78550
O96         O  0.31223389  0.02554218  0.14320547    -0.78530
O97         O  0.24069102  0.42806711  0.28176160    -0.78570
C98         C  0.28034850  0.43009485  0.29547170     1.11160
C99         C  0.29027300  0.01489520  0.10906012     1.11040
C100        C  0.27277116  0.39357026  0.16882947     1.11180
C101        C  0.34197396  0.07759023  0.25974225     1.11060
O102        O  0.21519256  0.07283102  0.26317614    -0.78530
O103        O  0.18672100  0.42165311  0.15014601    -0.78610
O104        O  0.18317312  0.49933790  0.25876217    -0.78550
O105        O  0.23158896  0.07708406  0.15703669    -0.78530
O106        O  0.18215086  0.03179244  0.18490970    -0.78580
O107        O  0.22237997  0.49666778  0.31835912    -0.78540
O108        O  0.26622900  0.11224963  0.23472326    -0.78500
O109        O  0.16844952  0.41678176  0.22178149    -0.78570
Co110      Co  0.25748812  0.02673088  0.27826300     1.51530
Co111      Co  0.23430902  0.46622652  0.17341469     1.51690
Co112      Co  0.22005657  0.45473648  0.22678313     1.51570
Co113      Co  0.28595920  0.06324279  0.19052832     1.51470
O114        O  0.27035295  0.50196068  0.22082143    -1.40390
C115        C  0.23448062  0.10922176  0.26219941     1.11080
C116        C  0.16111920  0.40526293  0.18100041     1.11170
C117        C  0.18556309  0.50246361  0.30048319     1.11110
C118        C  0.19189692  0.06605881  0.16580101     1.11090
C119        C  0.37130071  0.15000230  0.23649689    -0.14830
C120        C  0.37329813  0.11581731  0.26473307    -0.30000
H121        H  0.34381687  0.15141419  0.21338848     0.14190
H122        H  0.39867491  0.11545518  0.29021641     0.14770
C123        C  0.10082744  0.35691213  0.20690449    -0.14830
C124        C  0.12582183  0.37128124  0.17209029    -0.30000
H125        H  0.10469580  0.37303561  0.23959947     0.14190
H126        H  0.12277719  0.35603480  0.13892879     0.14770
C127        C  0.24000142  0.32726267  0.12799265    -0.14830
C128        C  0.27515041  0.35479465  0.13686512    -0.30000
H129        H  0.21367049  0.32389458  0.15271764     0.14190
H130        H  0.30039573  0.35742980  0.11085064     0.14770
C131        C  0.25969985  0.16795435  0.31901990    -0.14830
C132        C  0.22760349  0.14115923  0.30063119    -0.30000
H133        H  0.29005946  0.17465883  0.30048006     0.14190
H134        H  0.19782852  0.13520072  0.32046502     0.14770
C135        C  0.12682034  0.24280136  0.38188726    -0.14830
C136        C  0.08334834  0.25238770  0.37759633    -0.30000
H137        H  0.14509629  0.23542427  0.35107933     0.14190
H138        H  0.06283121  0.25993041  0.40677152     0.14770
C139        C  0.36112883  0.27202412  0.07835955    -0.14830
C140        C  0.39021918  0.24045194  0.08844016    -0.30000
H141        H  0.36125987  0.30228323  0.09831780     0.14190
H142        H  0.39321641  0.21139704  0.06690534     0.14770
C143        C  0.34810753  0.10831877  0.46745314    -0.14830
C144        C  0.39800915  0.11445709  0.95580725    -0.30000
H145        H  0.33290682  0.08227795  0.48632146     0.14190
H146        H  0.41279063  0.14188632  0.93860018     0.14770
C147        C  0.09517369  0.37925325  0.48497813    -0.14830
C148        C  0.13641657  0.37511068  0.46627037    -0.30000
H149        H  0.08598205  0.35726001  0.51142888     0.14190
H150        H  0.14624003  0.39683110  0.43980502     0.14770
C151        C  0.12800470  0.98675176  0.36313422    -0.14830
C152        C  0.14486796  0.50942784  0.32631590    -0.30000
H153        H  0.17043043  0.51609142  0.39265496     0.14190
H154        H  0.16123815  0.04268040  0.39044325     0.14770
C155        C  0.34228491  0.45750645  0.05500094    -0.14830
C156        C  0.31441889  0.49184777  0.06196490    -0.30000
H157        H  0.33787660  0.42863722  0.07478269     0.14190
H158        H  0.32575740  0.04348513  0.05400992     0.14770
C159        C  0.46769769  0.39391447  0.14699519    -0.14830
C160        C  0.49946039  0.40728174  0.11808504    -0.30000
H161        H  0.43697493  0.41175951  0.15056897     0.14190
H162        H  0.52906125  0.38752520  0.11502971     0.14770
C163        C  0.50036453  0.08775199  0.33607495    -0.14830
C164        C  0.53113381  0.11312062  0.31543432    -0.30000
H165        H  0.46533180  0.09202970  0.32962620     0.14190
H166        H  0.06770051  0.10769311  0.32307698     0.14770
C167        C  0.13415739  0.10393632  0.12054489    -0.11670
C168        C  0.15793368  0.08686687  0.14521383    -0.13230
C169        C  0.12025026  0.17529221  0.11011894    -0.11670
C170        C  0.10997498  0.19853823  0.14077416    -0.13230
C171        C  0.13597328  0.12757176  0.04756753    -0.11670
C172        C  0.16018794  0.13513109  0.01718858    -0.13230
C173        C  0.06820510  0.12170638  0.08723166    -0.11670
C174        C  0.03569463  0.10447996  0.07310461    -0.13230
C175        C  0.39683801  0.39600754  0.35102690    -0.11670
C176        C  0.43131070  0.41107601  0.36237192    -0.13230
C177        C  0.34492619  0.34146839  0.43720398    -0.11670
C178        C  0.35594669  0.36726699  0.41070991    -0.13230
C179        C  0.32129156  0.37829494  0.34189766    -0.11670
C180        C  0.29575443  0.39632407  0.31999216    -0.13230
C181        C  0.37294532  0.32443191  0.34843327    -0.11670
C182        C  0.39329037  0.29388917  0.33624111    -0.13230
C183        C  0.37244678  0.38117826  0.84840029    -0.00880
C184        C  0.12020041  0.11739138  0.59838956    -0.00880
O185        O  0.50073378  0.43763699  0.89291925    -0.78530
O186        O  0.41096890  0.03455736  0.47955188    -0.78560
O187        O  0.41086117  0.43104140  0.01945837    -0.78560
O188        O  0.54134761  0.08954654  0.90473275    -0.78510
O189        O  0.40724485  0.50661848  0.56924836    -0.78630
O190        O  0.49752036  0.03411064  0.88130049    -0.78550
O191        O  0.46397115  0.07685427  0.45546480    -0.78530
O192        O  0.43949134  0.42858944  0.93045140    -0.78570
C193        C  0.45948168  0.43419698  0.89407165     1.11160
C194        C  0.42324506  0.07000835  0.46329339     1.11040
C195        C  0.38579562  0.46304707  0.03049951     1.11180
C196        C  0.51581030  0.07249290  0.87478535     1.11060
O197        O  0.05714204  0.97989911  0.86838259    -0.78530
O198        O  0.47760863  0.45364405  0.56332781    -0.78610
O199        O  0.01047738  0.39389610  0.96797665    -0.78550
O200        O  0.04259364  0.06430512  0.50402576    -0.78530
O201        O  0.47825077  0.05595540  0.54537728    -0.78580
O202        O  0.06333997  0.44392966  0.96167289    -0.78540
O203        O  0.07817833  0.01827115  0.93026692    -0.78500
O204        O  0.50234248  0.41767370  0.04190066    -0.78570
Co205      Co  0.02408721  0.48247107  0.92738685     1.51530
Co206      Co  0.45230997  0.50425356  0.52476895     1.51690
Co207      Co  0.47113713  0.42378834  0.98605949     1.51570
Co208      Co  0.52242226  0.04616400  0.94508529     1.51470
O209        O  0.48694875  0.49007628  0.98074014    -1.40470
C210        C  0.08725116  0.00091954  0.89070519     1.11080
C211        C  0.96045829  0.41639482  0.56425894     1.11170
C212        C  0.05202693  0.40476132  0.96859124     1.11110
C213        C  0.02012506  0.07242997  0.53976434     1.11090
O214        O  0.29013822  0.31807776  0.93039465    -0.78530
O215        O  0.20316296  0.24195087  0.90377549    -0.78560
O216        O  0.29171197  0.22218995  0.88776583    -0.78560
O217        O  0.15954573  0.31365230  0.00689623    -0.78510
O218        O  0.24638309  0.16576949  0.88762099    -0.78630
O219        O  0.20594772  0.34422784  0.95938927    -0.78550
O220        O  0.15028640  0.23883891  0.95551092    -0.78530
O221        O  0.34369323  0.27584929  0.94788267    -0.78570
C222        C  0.33073138  0.31078277  0.93285750     1.11160
C223        C  0.16266285  0.24325994  0.91444398     1.11040
C224        C  0.27292414  0.18930615  0.86610286     1.11180
C225        C  0.16738179  0.34219209  0.97771676     1.11060
O226        O  0.24322690  0.33340883  0.55268208    -0.78530
O227        O  0.28667682  0.16152594  0.96820864    -0.78610
O228        O  0.31858749  0.23319442  0.02251930    -0.78550
O229        O  0.19490163  0.19318996  0.53468258    -0.78530
O230        O  0.19424683  0.16894756  0.95754264    -0.78580
O231        O  0.31705965  0.30610202  0.02394042    -0.78540
O232        O  0.21097233  0.27378630  0.57814467    -0.78500
O233        O  0.34956866  0.19052211  0.94652549    -0.78570
Co234      Co  0.26185211  0.32267195  0.98868668     1.51530
Co235      Co  0.24374483  0.20620254  0.93678879     1.51690
Co236      Co  0.30128590  0.22834278  0.95889515     1.51570
Co237      Co  0.18591702  0.25366935  0.01371247     1.51470
O238        O  0.24434383  0.25907018  0.98002740    -1.40470
C239        C  0.23035635  0.31092816  0.58539757     1.11080
C240        C  0.32901967  0.15750506  0.96035398     1.11170
C241        C  0.33034520  0.26999329  0.03976939     1.11110
C242        C  0.18526016  0.16158353  0.50859477     1.11090
O243        O  0.02092561  0.24968079  0.83128338    -0.78530
O244        O  0.48552449  0.32187363  0.66491985    -0.78560
O245        O  0.04857691  0.30040149  0.74511684    -0.78560
O246        O  0.40890587  0.26726921  0.74679525    -0.78510
O247        O  0.06771270  0.30102595  0.67508000    -0.78630
O248        O  0.46788662  0.28224506  0.78934549    -0.78550
O249        O  0.41906892  0.29281757  0.65985650    -0.78530
O250        O  0.08248281  0.23516792  0.79515826    -0.78570
C251        C  0.06280345  0.24350184  0.83259850     1.11160
C252        C  0.44604480  0.32465355  0.65312546     1.11040
C253        C  0.06929064  0.31841891  0.71333650     1.11180
C254        C  0.42834501  0.28707409  0.77834310     1.11060
O255        O  0.45455589  0.19555857  0.78614382    -0.78530
O256        O  0.05091598  0.22166288  0.63423407    -0.78610
O257        O  0.03930089  0.16821354  0.74867826    -0.78550
O258        O  0.43082636  0.20051630  0.63673205    -0.78530
O259        O  0.46741114  0.25110533  0.60197868    -0.78580
O260        O  0.49907420  0.18056473  0.79493936    -0.78540
O261        O  0.41897746  0.17927119  0.72207584    -0.78500
O262        O  0.08839308  0.22543992  0.69901709    -0.78570
Co263      Co  0.50821961  0.23871400  0.76763326     1.51530
Co264      Co  0.01553639  0.27234815  0.64757205     1.51690
Co265      Co  0.04019934  0.23460666  0.74426013     1.51570
Co266      Co  0.42435289  0.23466847  0.69269248     1.51470
O267        O  0.49225079  0.23496782  0.70025151    -1.40470
C268        C  0.42541337  0.17233598  0.76273670     1.11080
C269        C  0.08496395  0.21490971  0.65760427     1.11170
C270        C  0.01666823  0.15618672  0.78207505     1.11110
C271        C  0.43601403  0.22291222  0.60276926     1.11090
O272        O  0.29765859  0.47550649  0.80760457    -0.78530
O273        O  0.24447221  0.49609345  0.62112206    -0.78560
O274        O  0.24443892  0.40052830  0.71204117    -0.78560
O275        O  0.34909405  0.05198655  0.71283899    -0.78510
O276        O  0.27703680  0.43425748  0.66273400    -0.78630
O277        O  0.33187923  0.06078317  0.78448129    -0.78550
O278        O  0.30795433  0.01816742  0.63989460    -0.78530
O279        O  0.23611198  0.43488111  0.79404318    -0.78570
C280        C  0.27503548  0.44018397  0.80920293     1.11160
C281        C  0.28408705  0.00353995  0.60824875     1.11040
C282        C  0.26606891  0.39822970  0.67586404     1.11180
C283        C  0.35855032  0.06667365  0.75158916     1.11060
O284        O  0.23824654  0.08110181  0.78527384    -0.78530
O285        O  0.17883657  0.42885193  0.66233568    -0.78610
O286        O  0.17559553  0.50217948  0.76855732    -0.78550
O287        O  0.22840491  0.06700315  0.66623130    -0.78530
O288        O  0.18509066  0.01056840  0.68465873    -0.78580
O289        O  0.21372952  0.50491181  0.82868242    -0.78540
O290        O  0.27924590  0.11001525  0.73375154    -0.78500
O291        O  0.16466908  0.41992646  0.73460310    -0.78570
Co292      Co  0.27209470  0.02814966  0.79303691     1.51530
Co293      Co  0.22841967  0.47289686  0.68243854     1.51690
Co294      Co  0.21522308  0.45843287  0.73760515     1.51570
Co295      Co  0.28879696  0.05753534  0.69007648     1.51470
O296        O  0.26526117  0.50580136  0.73095589    -1.40390
C297        C  0.25554260  0.11419174  0.76883522     1.11080
C298        C  0.15537486  0.41059877  0.69393661     1.11170
C299        C  0.17698434  0.50750239  0.81023348     1.11110
C300        C  0.19066949  0.04872938  0.67211961     1.11090
C301        C  0.40187747  0.13309169  0.78095199    -0.14830
C302        C  0.39850757  0.09616598  0.75467107    -0.30000
H303        H  0.38145742  0.13707690  0.81081921     0.14190
H304        H  0.42044825  0.09403447  0.72558501     0.14770
C305        C  0.09806536  0.35776242  0.72001185    -0.14830
C306        C  0.12032951  0.37679840  0.68544353    -0.30000
H307        H  0.10311410  0.36967377  0.75424854     0.14190
H308        H  0.11513457  0.36517647  0.65113342     0.14770
C309        C  0.23534717  0.33122822  0.63232800    -0.14830
C310        C  0.26982540  0.35906394  0.64378623    -0.30000
H311        H  0.20720855  0.32843391  0.65504050     0.14190
H312        H  0.29691819  0.36130654  0.61966282     0.14770
C313        C  0.28105987  0.17718378  0.81779753    -0.14830
C314        C  0.24839655  0.15633305  0.79395060    -0.30000
H315        H  0.31519516  0.17510280  0.80641420     0.14190
H316        H  0.21482910  0.15957538  0.80719382     0.14770
C317        C  0.13213217  0.24604989  0.87572213    -0.14830
C318        C  0.08750523  0.24491115  0.87591516    -0.30000
H319        H  0.14879354  0.24756619  0.84333699     0.14190
H320        H  0.06925413  0.24434108  0.90739557     0.14770
C321        C  0.37554581  0.25840440  0.56206509    -0.14830
C322        C  0.39978492  0.22227775  0.56907287    -0.30000
H323        H  0.38599093  0.28922096  0.57755950     0.14190
H324        H  0.38854506  0.19083497  0.55529200     0.14770
C325        C  0.35465638  0.11697168  0.96870475    -0.14830
C326        C  0.39126113  0.10540130  0.45357829    -0.30000
H327        H  0.33865559  0.09011413  0.98568605     0.14190
H328        H  0.40559734  0.13238621  0.43535311     0.14770
C329        C  0.08735763  0.37085444  0.97714285    -0.14830
C330        C  0.13176825  0.37507126  0.96673163    -0.30000
H331        H  0.07605587  0.34093497  0.99239236     0.14190
H332        H  0.14271957  0.40394110  0.94933906     0.14770
C333        C  0.13204106  0.00507739  0.87112807    -0.14830
C334        C  0.13585488  0.51401810  0.83581045    -0.30000
H335        H  0.16150995  0.52955091  0.90106069     0.14190
H336        H  0.10757162  0.99819626  0.80558738     0.14770
C337        C  0.33543083  0.47404639  0.55992407    -0.14830
C338        C  0.30807327  0.50722631  0.57101928    -0.30000
H339        H  0.32869174  0.44222735  0.57371585     0.14190
H340        H  0.31385166  0.02990147  0.54895304     0.14770
C341        C  0.43456753  0.36052937  0.62284317    -0.14830
C342        C  0.46571216  0.38945283  0.60823197    -0.30000
H343        H  0.40229941  0.35917331  0.60697369     0.14190
H344        H  0.49746479  0.39264261  0.62502544     0.14770
C345        C  0.50193018  0.10008167  0.83752707    -0.14830
C346        C  0.52773680  0.10868216  0.80118114    -0.30000
H347        H  0.47352947  0.12047914  0.84499253     0.14190
H348        H  0.05373625  0.09694094  0.80006067     0.14770
C349        C  0.13214367  0.08813674  0.63154963    -0.11670
C350        C  0.15370245  0.06915756  0.65672746    -0.13230
C351        C  0.12914995  0.16043219  0.61611652    -0.11670
C352        C  0.11931126  0.19233964  0.63663505    -0.13230
C353        C  0.14573690  0.11026588  0.55780149    -0.11670
C354        C  0.16689745  0.12389384  0.52740221    -0.13230
C355        C  0.07385959  0.11246485  0.58937078    -0.11670
C356        C  0.04111630  0.09927505  0.57180832    -0.13230
C357        C  0.40144243  0.41794638  0.84129298    -0.11670
C358        C  0.43421649  0.43506035  0.85507460    -0.13230
C359        C  0.36121009  0.34270483  0.92034583    -0.11670
C360        C  0.37437871  0.36699432  0.89334544    -0.13230
C361        C  0.32778334  0.38940265  0.83892758    -0.11670
C362        C  0.29490646  0.40562005  0.82824103    -0.13230
C363        C  0.38661749  0.34635919  0.82075118    -0.11670
C364        C  0.40407676  0.31747467  0.80172394    -0.13230
C365        C  0.37051202  0.86110017  0.33550494    -0.00880
C366        C  0.12974996  0.62262685  0.09839796    -0.00880
O367        O  0.47135870  0.93457190  0.40046669    -0.78530
O368        O  0.43886753  0.57579208  0.01087943    -0.78560
O369        O  0.40252494  0.95007376  0.51338051    -0.78560
O370        O  0.52901947  0.58836372  0.39770653    -0.78510
O371        O  0.40707470  0.01336842  0.06287282    -0.78630
O372        O  0.49841654  0.52573862  0.37347195    -0.78550
O373        O  0.44227896  0.55484533  0.94109119    -0.78530
O374        O  0.46348841  0.89509484  0.46176168    -0.78570
C375        C  0.45638878  0.90225768  0.42126060     1.11160
C376        C  0.42432663  0.57741997  0.97157137     1.11040
C377        C  0.37999620  0.97464400  0.54213974     1.11180
C378        C  0.51086567  0.56613284  0.36589568     1.11060
O379        O  0.07015922  0.48287143  0.36769164    -0.78530
O380        O  0.48015289  0.96639984  0.07250753    -0.78610
O381        O  0.03582942  0.91967443  0.51814225    -0.78550
O382        O  0.01734759  0.58699866  0.99220987    -0.78530
O383        O  0.51827579  0.54419652  0.05003220    -0.78580
O384        O  0.05516164  0.92298011  0.44707557    -0.78540
O385        O  0.08310603  0.52493551  0.42830220    -0.78500
O386        O  0.45676249  0.89649019  0.55203520    -0.78570
Co387      Co  0.01976671  0.97344165  0.42272113     1.51530
Co388      Co  0.45398293  0.00784525  0.02226786     1.51690
Co389      Co  0.47258323  0.93789961  0.51063718     1.51570
Co390      Co  0.51287927  0.54494972  0.43956739     1.51470
O391        O  0.49238465  0.98828813  0.47749976    -1.40470
C392        C  0.09665350  0.50718747  0.39026537     1.11080
C393        C  0.96360842  0.92539161  0.07983102     1.11170
C394        C  0.06219989  0.90983413  0.48629269     1.11110
C395        C  0.03523317  0.57806251  0.02814566     1.11090
O396        O  0.28452973  0.81169001  0.42257704    -0.78530
O397        O  0.19743506  0.73948238  0.40939273    -0.78560
O398        O  0.28271436  0.71278145  0.38876515    -0.78560
O399        O  0.16558391  0.81513998  0.51317066    -0.78510
O400        O  0.23405360  0.65992158  0.39114005    -0.78630
O401        O  0.21048882  0.84228987  0.46258920    -0.78550
O402        O  0.14762533  0.73930194  0.46412643    -0.78530
O403        O  0.33723280  0.76683978  0.43566726    -0.78570
C404        C  0.31811097  0.79131437  0.40968713     1.11160
C405        C  0.15775240  0.74237651  0.42229341     1.11040
C406        C  0.26122983  0.68151279  0.36831058     1.11180
C407        C  0.17311298  0.84211214  0.48267863     1.11060
O408        O  0.24810580  0.83674306  0.04859716    -0.78530
O409        O  0.28018223  0.65657801  0.47056681    -0.78610
O410        O  0.32161826  0.72915891  0.51901150    -0.78550
O411        O  0.20339511  0.69871691  0.03334336    -0.78530
O412        O  0.18857959  0.66784465  0.46563528    -0.78580
O413        O  0.32793219  0.80079453  0.51219271    -0.78540
O414        O  0.21396998  0.77765425  0.07344075    -0.78500
O415        O  0.34313536  0.68163591  0.44363404    -0.78570
Co416      Co  0.26774083  0.81821377  0.48576414     1.51530
Co417      Co  0.23772027  0.70208780  0.44019363     1.51690
Co418      Co  0.29776926  0.72141172  0.45814755     1.51570
Co419      Co  0.18757007  0.75402076  0.51960258     1.51470
O420        O  0.24467239  0.75539905  0.48220437    -1.40470
C421        C  0.23321309  0.81434475  0.08064485     1.11080
C422        C  0.32182201  0.65066002  0.46087041     1.11170
C423        C  0.34069258  0.76512401  0.52940192     1.11110
C424        C  0.19493861  0.66565248  0.00931921     1.11090
O425        O  0.01507465  0.74973400  0.34065582    -0.78530
O426        O  0.48957082  0.82665606  0.16979470    -0.78560
O427        O  0.05301478  0.79625318  0.25931552    -0.78560
O428        O  0.41191989  0.77843746  0.24852868    -0.78510
O429        O  0.06928613  0.80616680  0.18931860    -0.78630
O430        O  0.47662233  0.80018837  0.27277208    -0.78550
O431        O  0.42224414  0.80079382  0.16154968    -0.78530
O432        O  0.07733860  0.72823320  0.30571187    -0.78570
C433        C  0.05668892  0.73997220  0.34237626     1.11160
C434        C  0.45056496  0.83197307  0.15771397     1.11040
C435        C  0.07205269  0.81847214  0.22976827     1.11180
C436        C  0.43833854  0.80868978  0.26037275     1.11060
O437        O  0.42882216  0.71265671  0.29203310    -0.78530
O438        O  0.05511281  0.72694808  0.14235991    -0.78610
O439        O  0.04174556  0.66630668  0.24141299    -0.78550
O440        O  0.42800627  0.70796868  0.13922360    -0.78530
O441        O  0.47101299  0.75552483  0.10659856    -0.78580
O442        O  0.49458014  0.67502164  0.29028347    -0.78540
O443        O  0.41465205  0.68691052  0.22423604    -0.78500
O444        O  0.09266239  0.72812877  0.20672278    -0.78570
Co445      Co  0.49058481  0.73828372  0.27583862     1.51530
Co446      Co  0.01842167  0.77710583  0.15782566     1.51690
Co447      Co  0.04202523  0.73196562  0.24998028     1.51570
Co448      Co  0.42313045  0.74262666  0.19471940     1.51470
O449        O  0.49030524  0.73641097  0.20529579    -1.40470
C450        C  0.41164877  0.68275551  0.26592948     1.11080
C451        C  0.08917022  0.71851906  0.16512590     1.11170
C452        C  0.02016914  0.65218633  0.27370080     1.11110
C453        C  0.43736868  0.72971883  0.10561081     1.11090
O454        O  0.30100071  0.98563258  0.29695625    -0.78530
O455        O  0.24840308  0.01173852  0.11220514    -0.78560
O456        O  0.24857968  0.90662355  0.20725432    -0.78560
O457        O  0.34698865  0.55862872  0.20974197    -0.78510
O458        O  0.25072279  0.93469117  0.14174659    -0.78630
O459        O  0.33544383  0.55466837  0.28248853    -0.78550
O460        O  0.31101864  0.52019001  0.13619122    -0.78530
O461        O  0.25134896  0.93381022  0.29352121    -0.78570
C462        C  0.28736407  0.94885654  0.30763315     1.11160
C463        C  0.29014493  0.50017299  0.10514287     1.11040
C464        C  0.25625584  0.90274822  0.16537410     1.11180
C465        C  0.35700316  0.56985505  0.24942356     1.11060
O466        O  0.24571662  0.57347713  0.29181562    -0.78530
O467        O  0.16751516  0.94070253  0.18807867    -0.78610
O468        O  0.18715433  0.99864662  0.28996013    -0.78550
O469        O  0.22649793  0.56233668  0.15961247    -0.78530
O470        O  0.18543259  0.50553295  0.17979581    -0.78580
O471        O  0.23477599  0.03178742  0.33785152    -0.78540
O472        O  0.26854840  0.60603473  0.23122831    -0.78500
O473        O  0.17388700  0.91660076  0.25650396    -0.78570
Co474      Co  0.27780385  0.51935835  0.28924564     1.51530
Co475      Co  0.21718247  0.98358405  0.16474098     1.51690
Co476      Co  0.21973656  0.95755678  0.24366411     1.51570
Co477      Co  0.28631503  0.55730554  0.18626085     1.51470
O478        O  0.26206114  0.00397272  0.21653417    -1.40390
C479        C  0.25150243  0.60723114  0.27033693     1.11080
C480        C  0.15363403  0.91600168  0.21982988     1.11170
C481        C  0.19650260  0.01489830  0.32987317     1.11110
C482        C  0.18931515  0.54355302  0.16644634     1.11090
C483        C  0.39064328  0.64086731  0.28160543    -0.14830
C484        C  0.39283861  0.60408615  0.25457309    -0.30000
H485        H  0.36988894  0.64135625  0.31139791     0.14190
H486        H  0.41550375  0.60520573  0.22608759     0.14770
C487        C  0.10097912  0.85660490  0.24222359    -0.14830
C488        C  0.11661585  0.88433879  0.21124220    -0.30000
H489        H  0.11185926  0.86025109  0.27671759     0.14190
H490        H  0.10467436  0.88109072  0.17705871     0.14770
C491        C  0.23443690  0.83406568  0.12704902    -0.14830
C492        C  0.26762401  0.86140753  0.14110105    -0.30000
H493        H  0.20364690  0.83299596  0.14623802     0.14190
H494        H  0.29745666  0.86273814  0.12044635     0.14770
C495        C  0.26911470  0.67001095  0.31999596    -0.14830
C496        C  0.23858921  0.64784419  0.29497896    -0.30000
H497        H  0.30298033  0.67210358  0.30789018     0.14190
H498        H  0.20483328  0.64712962  0.30811229     0.14770
C499        C  0.12573957  0.74532922  0.38494606    -0.14830
C500        C  0.08118828  0.74205692  0.38579228    -0.30000
H501        H  0.14161196  0.74808936  0.35226605     0.14190
H502        H  0.06322651  0.74056116  0.41737578     0.14770
C503        C  0.38023916  0.76793178  0.06231789    -0.14830
C504        C  0.40334945  0.73109266  0.06979533    -0.30000
H505        H  0.39124556  0.79868703  0.07770438     0.14190
H506        H  0.39141040  0.70006485  0.05558101     0.14770
C507        C  0.34660120  0.61086260  0.47167148    -0.14830
C508        C  0.39110995  0.60930334  0.95894077    -0.30000
H509        H  0.33525441  0.59036005  0.49853430     0.14190
H510        H  0.39844013  0.62619884  0.92821570     0.14770
C511        C  0.10030315  0.88027007  0.49612627    -0.14830
C512        C  0.13737391  0.87371751  0.47046961    -0.30000
H513        H  0.09769271  0.86327573  0.52741477     0.14190
H514        H  0.14171429  0.89186870  0.44007195     0.14770
C515        C  0.14152592  0.51281513  0.37133111    -0.14830
C516        C  0.16091244  0.01682790  0.36472295    -0.30000
H517        H  0.12959780  0.96121470  0.33703103     0.14190
H518        H  0.11480352  0.50866362  0.30636257     0.14770
C519        C  0.33852970  0.97671925  0.05431939    -0.14830
C520        C  0.31430775  0.01207369  0.06589707    -0.30000
H521        H  0.32879066  0.94489202  0.06640661     0.14190
H522        H  0.32013842  0.52076589  0.04252193     0.14770
C523        C  0.44031818  0.87136195  0.13183031    -0.14830
C524        C  0.47076773  0.90331910  0.12242601    -0.30000
H525        H  0.40976264  0.86969377  0.11278570     0.14190
H526        H  0.50103627  0.90702742  0.14169642     0.14770
C527        C  0.49765490  0.58985974  0.32514224    -0.14830
C528        C  0.52721255  0.60539394  0.29437728    -0.30000
H529        H  0.46504857  0.60430435  0.32727947     0.14190
H530        H  0.05659269  0.59153487  0.28790387     0.14770
C531        C  0.13262101  0.58883303  0.12992922    -0.11670
C532        C  0.15129454  0.56444877  0.15276331    -0.13230
C533        C  0.13557127  0.66415255  0.12156722    -0.11670
C534        C  0.12282279  0.69448779  0.14352214    -0.13230
C535        C  0.16234465  0.61628269  0.06330858    -0.11670
C536        C  0.18243036  0.62776025  0.03133803    -0.13230
C537        C  0.08738969  0.62153401  0.07743858    -0.11670
C538        C  0.05847133  0.60944516  0.05348090    -0.13230
C539        C  0.40074525  0.86504056  0.37148306    -0.11670
C540        C  0.42767611  0.87471872  0.39822149    -0.13230
C541        C  0.33319839  0.79573185  0.36550783    -0.11670
C542        C  0.34916739  0.81911533  0.33877900    -0.13230
C543        C  0.33899692  0.89478180  0.33998130    -0.11670
C544        C  0.31385701  0.92241870  0.33229309    -0.13230
C545        C  0.39518700  0.86541101  0.29485175    -0.11670
C546        C  0.42093472  0.84981222  0.26940697    -0.13230
C547        C  0.36920765  0.86267896  0.83323058    -0.00880
C548        C  0.12003237  0.61535675  0.59429500    -0.00880
O549        O  0.47498940  0.94652560  0.89498929    -0.78530
O550        O  0.41737358  0.55164682  0.49786214    -0.78560
O551        O  0.40595351  0.95954106  0.01056616    -0.78560
O552        O  0.51718553  0.58616659  0.89864929    -0.78510
O553        O  0.39879726  0.00757130  0.56137936    -0.78630
O554        O  0.48712657  0.52465202  0.87625295    -0.78550
O555        O  0.45234494  0.56843406  0.43623073    -0.78530
O556        O  0.46287851  0.90551380  0.95439045    -0.78570
C557        C  0.45398708  0.91749830  0.91565195     1.11160
C558        C  0.41962439  0.57186846  0.46208551     1.11040
C559        C  0.38575894  0.98320477  0.04176470     1.11180
C560        C  0.49847191  0.56453598  0.86747314     1.11060
O561        O  0.06620772  0.48300363  0.88194837    -0.78530
O562        O  0.47377920  0.96441347  0.57620695    -0.78610
O563        O  0.03430401  0.92387997  0.01059635    -0.78550
O564        O  0.03269395  0.57682983  0.49485023    -0.78530
O565        O  0.49121099  0.54842645  0.55278340    -0.78580
O566        O  0.05413914  0.93017203  0.93999553    -0.78540
O567        O  0.07279622  0.53125221  0.93734619    -0.78500
O568        O  0.45733274  0.90113296  0.04538739    -0.78570
Co569      Co  0.01976561  0.98330574  0.91844379     1.51530
Co570      Co  0.44740661  0.00189937  0.52268780     1.51690
Co571      Co  0.47501912  0.94402092  0.00594762     1.51570
Co572      Co  0.50681705  0.54169708  0.94217565     1.51470
O573        O  0.49724376  0.99526948  0.97515122    -1.40470
C574        C  0.08907938  0.51231734  0.90125046     1.11080
C575        C  0.96669985  0.92540787  0.58815560     1.11170
C576        C  0.06094299  0.91496541  0.97852601     1.11110
C577        C  0.01695015  0.57529288  0.53451443     1.11090
O578        O  0.29146323  0.81407025  0.92406932    -0.78530
O579        O  0.20302002  0.73860971  0.90787817    -0.78560
O580        O  0.28660635  0.71742886  0.89102328    -0.78560
O581        O  0.16258436  0.81662102  0.00513506    -0.78510
O582        O  0.24340273  0.66019378  0.89518190    -0.78630
O583        O  0.21175201  0.84573386  0.95931044    -0.78550
O584        O  0.15037370  0.73783711  0.95936315    -0.78530
O585        O  0.34213992  0.76934476  0.94328794    -0.78570
C586        C  0.32685398  0.79404586  0.91562521     1.11160
C587        C  0.16274505  0.74082157  0.91828093     1.11040
C588        C  0.26709195  0.68446531  0.87126585     1.11180
C589        C  0.17268352  0.84503072  0.97664149     1.11060
O590        O  0.25223140  0.83268130  0.55028528    -0.78530
O591        O  0.28495673  0.66083964  0.97709633    -0.78610
O592        O  0.32086045  0.73233272  0.02282889    -0.78550
O593        O  0.20189882  0.69332433  0.53272653    -0.78530
O594        O  0.19413850  0.66834224  0.96774437    -0.78580
O595        O  0.32656457  0.80429938  0.01719054    -0.78540
O596        O  0.22008710  0.77297272  0.57631998    -0.78500
O597        O  0.34628945  0.68569287  0.94757739    -0.78570
Co598      Co  0.26838927  0.82159108  0.98602153     1.51530
Co599      Co  0.24288082  0.70366699  0.94270689     1.51690
Co600      Co  0.29976197  0.72499545  0.96081476     1.51570
Co601      Co  0.18630976  0.75674232  0.01592295     1.51470
O602        O  0.24569318  0.75884055  0.98257697    -1.40470
C603        C  0.23968441  0.80993936  0.58313559     1.11080
C604        C  0.32656799  0.65552772  0.96751094     1.11170
C605        C  0.33978725  0.76831391  0.03361304     1.11110
C606        C  0.18876424  0.66282351  0.50687769     1.11090
O607        O  0.02333754  0.72361149  0.83362916    -0.78530
O608        O  0.48598300  0.82561488  0.67414561    -0.78560
O609        O  0.05655783  0.79622884  0.74680396    -0.78560
O610        O  0.41187103  0.77985302  0.75550393    -0.78510
O611        O  0.07303893  0.79488665  0.67623818    -0.78630
O612        O  0.47771890  0.80028999  0.77756141    -0.78550
O613        O  0.41804137  0.80085243  0.66778910    -0.78530
O614        O  0.08532206  0.72976274  0.79684280    -0.78570
C615        C  0.06571496  0.72921162  0.83484386     1.11160
C616        C  0.44663829  0.83164230  0.66345079     1.11040
C617        C  0.07683126  0.81279260  0.71401114     1.11180
C618        C  0.43969601  0.80965714  0.76508907     1.11060
O619        O  0.42739547  0.71459514  0.79932070    -0.78530
O620        O  0.04659963  0.71805061  0.63666527    -0.78610
O621        O  0.02967924  0.66356346  0.75402610    -0.78550
O622        O  0.42039228  0.70819977  0.64588441    -0.78530
O623        O  0.46475977  0.75401475  0.61206497    -0.78580
O624        O  0.49140705  0.67450138  0.79559400    -0.78540
O625        O  0.41033728  0.68842132  0.73223303    -0.78500
O626        O  0.08523240  0.71678255  0.70098888    -0.78570
Co627      Co  0.48944258  0.73787618  0.78076636     1.51530
Co628      Co  0.01684752  0.77191886  0.65157189     1.51690
Co629      Co  0.04034024  0.73164808  0.74793361     1.51570
Co630      Co  0.41898203  0.74329336  0.70159798     1.51470
O631        O  0.48607583  0.73540353  0.71023591    -1.40470
C632        C  0.40834012  0.68508804  0.77409613     1.11080
C633        C  0.08058570  0.70857299  0.65916955     1.11170
C634        C  0.01444871  0.65058137  0.79190079     1.11110
C635        C  0.43084831  0.72860762  0.61152919     1.11090
O636        O  0.30095869  0.97415215  0.80373325    -0.78530
O637        O  0.24443684  0.99167884  0.61642437    -0.78560
O638        O  0.25162702  0.89864302  0.70988193    -0.78560
O639        O  0.34460735  0.55664254  0.72191529    -0.78510
O640        O  0.28182969  0.93275940  0.65943000    -0.78630
O641        O  0.32459668  0.56520553  0.79241934    -0.78550
O642        O  0.30729688  0.52104424  0.64803715    -0.78530
O643        O  0.23879669  0.93491161  0.79120608    -0.78570
C644        C  0.27775126  0.93942412  0.80598056     1.11160
C645        C  0.28467616  0.50822229  0.61490014     1.11040
C646        C  0.27309789  0.89667881  0.67362740     1.11180
C647        C  0.35150490  0.57311838  0.76047513     1.11060
O648        O  0.23039323  0.57929264  0.78929415    -0.78530
O649        O  0.18391343  0.92401640  0.65895934    -0.78610
O650        O  0.17969018  0.99970481  0.76122831    -0.78550
O651        O  0.22600101  0.56841856  0.66896880    -0.78530
O652        O  0.18237937  0.51410829  0.69109272    -0.78580
O653        O  0.21609831  0.00605192  0.82238186    -0.78540
O654        O  0.27114291  0.61143394  0.73974467    -0.78500
O655        O  0.17052954  0.91625616  0.73124529    -0.78570
Co656      Co  0.26718937  0.52863312  0.79784378     1.51530
Co657      Co  0.23190780  0.97002555  0.67825221     1.51690
Co658      Co  0.22011019  0.95595031  0.73312259     1.51570
Co659      Co  0.28507689  0.56014397  0.69644882     1.51470
O660        O  0.26875783  0.00453068  0.72614748    -1.40390
C661        C  0.24593781  0.61344559  0.77381653     1.11080
C662        C  0.16129866  0.90565621  0.69096075     1.11170
C663        C  0.17949839  0.00407833  0.80273093     1.11110
C664        C  0.18807847  0.55073320  0.67499007     1.11090
C665        C  0.38658973  0.64417430  0.79086066    -0.14830
C666        C  0.38742484  0.60721274  0.76414756    -0.30000
H667        H  0.36685773  0.64537620  0.82136080     0.14190
H668        H  0.40996429  0.60721726  0.73550100     0.14770
C669        C  0.10636616  0.85172616  0.71902714    -0.14830
C670        C  0.12716814  0.87070227  0.68358167    -0.30000
H671        H  0.11236828  0.86408765  0.75294988     0.14190
H672        H  0.12104988  0.85871761  0.64955404     0.14770
C673        C  0.24445418  0.82975067  0.63014028    -0.14830
C674        C  0.27865826  0.85736593  0.64237094    -0.30000
H675        H  0.21593005  0.82698579  0.65237546     0.14190
H676        H  0.30619706  0.85981381  0.61879697     0.14770
C677        C  0.27070497  0.67499230  0.82226716    -0.14830
C678        C  0.23732562  0.65373442  0.80069351    -0.30000
H679        H  0.30300143  0.67749939  0.80650593     0.14190
H680        H  0.20505398  0.65381768  0.81733250     0.14770
C681        C  0.13251572  0.74405820  0.87967947    -0.14830
C682        C  0.08984558  0.73129149  0.87817666    -0.30000
H683        H  0.14834415  0.75356490  0.84852477     0.14190
H684        H  0.07282673  0.72127517  0.90844337     0.14770
C685        C  0.37986836  0.76526250  0.55991674    -0.14830
C686        C  0.39851879  0.72809611  0.57409915    -0.30000
H687        H  0.39288365  0.79666234  0.57206606     0.14190
H688        H  0.38406669  0.69670572  0.56380238     0.14770
C689        C  0.35305835  0.61804685  0.98141294    -0.14830
C690        C  0.38529344  0.60311811  0.44981897    -0.30000
H691        H  0.34289585  0.59932510  0.01009594     0.14190
H692        H  0.39420761  0.62328579  0.42170159     0.14770
C693        C  0.09873607  0.88382516  0.98749682    -0.14830
C694        C  0.13750718  0.87779347  0.96370568    -0.30000
H695        H  0.09439813  0.86511415  0.01752707     0.14190
H696        H  0.14394626  0.89754659  0.93476954     0.14770
C697        C  0.13270314  0.52165533  0.88064006    -0.14830
C698        C  0.13679141  0.00265946  0.82644374    -0.30000
H699        H  0.16038159  0.01149848  0.89267810     0.14190
H700        H  0.10571117  0.50859529  0.81648773     0.14770
C701        C  0.33300733  0.96530169  0.55449532    -0.14830
C702        C  0.30537494  0.99885407  0.56363813    -0.30000
H703        H  0.32623248  0.93391195  0.56920016     0.14190
H704        H  0.31697245  0.53916317  0.55869224     0.14770
C705        C  0.43580345  0.87153252  0.63877019    -0.14830
C706        C  0.46602787  0.90359620  0.62924903    -0.30000
H707        H  0.40527515  0.86958745  0.61964563     0.14190
H708        H  0.49638019  0.90741201  0.64836913     0.14770
C709        C  0.48591214  0.58775246  0.82642451    -0.14830
C710        C  0.51630239  0.60156407  0.79557322    -0.30000
H711        H  0.45510568  0.60522494  0.82986267     0.14190
H712        H  0.05061820  0.59089242  0.80684222     0.14770
C713        C  0.13156840  0.58551546  0.62710988    -0.11670
C714        C  0.15197273  0.56844997  0.65470589    -0.13230
C715        C  0.12695109  0.65789238  0.61380820    -0.11670
C716        C  0.11469767  0.68762598  0.63622521    -0.13230
C717        C  0.14716938  0.61057016  0.55457256    -0.11670
C718        C  0.16942446  0.62557174  0.52568957    -0.13230
C719        C  0.07409463  0.61017938  0.58385919    -0.11670
C720        C  0.04030830  0.59961215  0.56671399    -0.13230
C721        C  0.39148067  0.88414750  0.86923936    -0.11670
C722        C  0.41829310  0.89820092  0.89418458    -0.13230
C723        C  0.34795705  0.79701825  0.87400641    -0.11670
C724        C  0.36281532  0.81817023  0.84496293    -0.13230
C725        C  0.32721897  0.88095794  0.82867132    -0.11670
C726        C  0.29733082  0.90370158  0.82280636    -0.13230
C727        C  0.39621250  0.86773159  0.79410691    -0.11670
C728        C  0.42400284  0.85193492  0.77114632    -0.13230
C729        C  0.86269231  0.36118777  0.35967121    -0.00880
C730        C  0.62019984  0.11878595  0.10485432    -0.00880
O731        O  0.99360376  0.44065985  0.38218986    -0.78530
O732        O  0.91122720  0.04281434  0.98162723    -0.78560
O733        O  0.89737770  0.46102746  0.50073721    -0.78560
O734        O  0.03784151  0.08090748  0.40845892    -0.78510
O735        O  0.91386928  0.49000980  0.06015320    -0.78630
O736        O  0.99293254  0.02511305  0.38654099    -0.78550
O737        O  0.96476291  0.08544847  0.95914109    -0.78530
O738        O  0.94839194  0.41168093  0.43418534    -0.78570
C739        C  0.96209526  0.41653901  0.39405960     1.11160
C740        C  0.92410404  0.07849317  0.96634412     1.11040
C741        C  0.87956221  0.47968551  0.53664875     1.11180
C742        C  0.01252390  0.06274531  0.37888331     1.11060
O743        O  0.55340225  0.96549858  0.36820188    -0.78530
O744        O  0.00354910  0.46533590  0.07595488    -0.78610
O745        O  0.51972087  0.40483750  0.49015289    -0.78550
O746        O  0.54557161  0.07173711  0.00022368    -0.78530
O747        O  0.97850953  0.05938994  0.04936884    -0.78580
O748        O  0.56882172  0.44235440  0.45186499    -0.78540
O749        O  0.57852614  0.00921880  0.42432879    -0.78500
O750        O  0.94364483  0.39602472  0.53020405    -0.78570
Co751      Co  0.52930915  0.48276572  0.41867479     1.51530
Co752      Co  0.97444399  0.51425691  0.04658387     1.51690
Co753      Co  0.96439529  0.44010115  0.49214511     1.51570
Co754      Co  0.01880231  0.03869300  0.44908155     1.51470
O755        O  0.99166835  0.49361330  0.46760700    -1.40470
C756        C  0.58495241  0.98811914  0.38570154     1.11080
C757        C  0.49073741  0.43445012  0.07883716     1.11170
C758        C  0.55907158  0.41006590  0.47544561     1.11110
C759        C  0.52378210  0.07776514  0.03668790     1.11090
O760        O  0.78299002  0.30304446  0.43213835    -0.78530
O761        O  0.69745103  0.23685830  0.41012048    -0.78560
O762        O  0.78014548  0.21364930  0.38685464    -0.78560
O763        O  0.65938969  0.31240785  0.51128362    -0.78510
O764        O  0.73594350  0.15763060  0.39282801    -0.78630
O765        O  0.70708064  0.33879094  0.46302237    -0.78550
O766        O  0.64422521  0.23677151  0.46140833    -0.78530
O767        O  0.83953882  0.26440118  0.44354392    -0.78570
C768        C  0.82369129  0.30026658  0.43532931     1.11160
C769        C  0.65701972  0.24054968  0.42045725     1.11040
C770        C  0.75970805  0.18033737  0.36777640     1.11180
C771        C  0.66900045  0.33988204  0.48170004     1.11060
O772        O  0.73312173  0.33456972  0.05672189    -0.78530
O773        O  0.78088528  0.15320412  0.47140371    -0.78610
O774        O  0.81910514  0.22221013  0.51858493    -0.78550
O775        O  0.70867076  0.19023199  0.04024936    -0.78530
O776        O  0.68755494  0.16442232  0.46380067    -0.78580
O777        O  0.81821860  0.29501028  0.52335988    -0.78540
O778        O  0.72102641  0.26984610  0.08364138    -0.78500
O779        O  0.84117512  0.17882909  0.44016489    -0.78570
Co780      Co  0.76152813  0.31410517  0.49126786     1.51530
Co781      Co  0.73758896  0.19911536  0.44179294     1.51690
Co782      Co  0.79558598  0.21865869  0.45690387     1.51570
Co783      Co  0.68116865  0.25087282  0.51896735     1.51470
O784        O  0.74106135  0.25131374  0.48548062    -1.40470
C785        C  0.73274341  0.30968520  0.08969835     1.11080
C786        C  0.82225021  0.14763491  0.45940529     1.11170
C787        C  0.83473410  0.25832165  0.53409088     1.11110
C788        C  0.69419224  0.15927485  0.01593329     1.11090
O789        O  0.52142687  0.25209681  0.32302976    -0.78530
O790        O  0.98243101  0.31352978  0.14120916    -0.78560
O791        O  0.55468997  0.30835649  0.24547766    -0.78560
O792        O  0.94294707  0.29625576  0.28426522    -0.78510
O793        O  0.56392551  0.29923166  0.17204701    -0.78630
O794        O  0.93092167  0.23193552  0.30810222    -0.78550
O795        O  0.95812463  0.34007214  0.20637938    -0.78530
O796        O  0.58894323  0.24441433  0.29735636    -0.78570
C797        C  0.56372918  0.25013737  0.33075498     1.11160
C798        C  0.97219761  0.34578289  0.16665108     1.11040
C799        C  0.57112891  0.32090932  0.20861289     1.11180
C800        C  0.92207745  0.27125678  0.30924603     1.11060
O801        O  0.94682958  0.17551269  0.23709213    -0.78530
O802        O  0.54157925  0.20626181  0.16027079    -0.78610
O803        O  0.53903537  0.17643840  0.26680368    -0.78550
O804        O  0.90923804  0.27421685  0.15920881    -0.78530
O805        O  0.95473241  0.22427284  0.13221987    -0.78580
O806        O  0.98517726  0.17155253  0.31733099    -0.78540
O807        O  0.89450781  0.22547567  0.23293015    -0.78500
O808        O  0.58896768  0.23116541  0.21005734    -0.78570
Co809      Co  0.98401359  0.21403262  0.27450026     1.51530
Co810      Co  0.51040182  0.26092142  0.15449034     1.51690
Co811      Co  0.54299258  0.24564470  0.25493252     1.51570
Co812      Co  0.92934290  0.28313698  0.22204332     1.51470
O813        O  0.98782206  0.25236801  0.21995918    -1.40470
C814        C  0.90649384  0.18529615  0.23364476     1.11080
C815        C  0.58049399  0.20953025  0.17490656     1.11170
C816        C  0.51787577  0.15566800  0.29830265     1.11110
C817        C  0.91879339  0.24539130  0.12961545     1.11090
O818        O  0.80467540  0.47424242  0.30221870    -0.78530
O819        O  0.75065799  0.49359002  0.11633692    -0.78560
O820        O  0.75211894  0.39991391  0.20905420    -0.78560
O821        O  0.84087854  0.06226130  0.21552927    -0.78510
O822        O  0.78504235  0.43309269  0.15946771    -0.78630
O823        O  0.81440877  0.06810311  0.28557711    -0.78550
O824        O  0.80517521  0.02458182  0.13869139    -0.78530
O825        O  0.74308022  0.43350554  0.28884455    -0.78570
C826        C  0.78191470  0.43908075  0.30454194     1.11160
C827        C  0.78119712  0.00688061  0.10861954     1.11040
C828        C  0.77448182  0.39731640  0.17356627     1.11180
C829        C  0.84356208  0.07796236  0.25524287     1.11060
O830        O  0.71934066  0.07148833  0.26311558    -0.78530
O831        O  0.68731379  0.42575554  0.15514545    -0.78610
O832        O  0.68151430  0.50024431  0.26283761    -0.78550
O833        O  0.72197977  0.06503753  0.16288361    -0.78530
O834        O  0.68412340  0.01389068  0.19822625    -0.78580
O835        O  0.71975020  0.50247785  0.32300238    -0.78540
O836        O  0.76684319  0.11213540  0.23252244    -0.78500
O837        O  0.67121026  0.41747998  0.22707414    -0.78570
Co838      Co  0.76065024  0.02518533  0.28026317     1.51530
Co839      Co  0.73492314  0.47046102  0.17752695     1.51690
Co840      Co  0.72157366  0.45702472  0.23235747     1.51570
Co841      Co  0.78244538  0.06180453  0.18847528     1.51470
O842        O  0.77081710  0.50499473  0.22595776    -1.40390
C843        C  0.73739199  0.10824442  0.26193122     1.11080
C844        C  0.66291540  0.40773544  0.18600882     1.11170
C845        C  0.68302902  0.50520988  0.30446107     1.11110
C846        C  0.68576489  0.04818230  0.17677664     1.11090
C847        C  0.87309492  0.14936633  0.23370885    -0.14830
C848        C  0.87496331  0.11527835  0.26175035    -0.30000
H849        H  0.84612673  0.15084037  0.20996226     0.14190
H850        H  0.89929609  0.11496819  0.28828765     0.14770
C851        C  0.60197275  0.35919715  0.21045718    -0.14830
C852        C  0.62731070  0.37429238  0.17626766    -0.30000
H853        H  0.60600374  0.37418127  0.24366983     0.14190
H854        H  0.62390204  0.36029405  0.14260421     0.14770
C855        C  0.74251035  0.32935630  0.13550302    -0.14830
C856        C  0.77713124  0.35789025  0.14249442    -0.30000
H857        H  0.71681680  0.32649935  0.16097938     0.14190
H858        H  0.80155682  0.36033842  0.11567138     0.14770
C859        C  0.76245251  0.16722457  0.31884453    -0.14830
C860        C  0.73074751  0.13992660  0.30055778    -0.30000
H861        H  0.79272841  0.17439554  0.30035336     0.14190
H862        H  0.70113064  0.13351640  0.32048076     0.14770
C863        C  0.62769032  0.24488978  0.38074332    -0.14830
C864        C  0.58368356  0.25258616  0.37697946    -0.30000
H865        H  0.64626529  0.24024541  0.34962276     0.14190
H866        H  0.56292269  0.25755582  0.40650943     0.14770
C867        C  0.86054048  0.27257191  0.08041436    -0.14830
C868        C  0.88820736  0.23981724  0.09085064    -0.30000
H869        H  0.86255768  0.30343453  0.09927195     0.14190
H870        H  0.88897824  0.20985139  0.07046104     0.14770
C871        C  0.84914690  0.10816008  0.46951353    -0.14830
C872        C  0.89289352  0.11424100  0.95741359    -0.30000
H873        H  0.83379637  0.08164430  0.48759300     0.14190
H874        H  0.90765574  0.14202736  0.94077426     0.14770
C875        C  0.59375080  0.37686007  0.48697040    -0.14830
C876        C  0.63578706  0.37432979  0.46951240    -0.30000
H877        H  0.58342822  0.35244936  0.51064471     0.14190
H878        H  0.64625287  0.39805473  0.44517851     0.14770
C879        C  0.62733589  0.98738293  0.36022144    -0.14830
C880        C  0.64214389  0.51171685  0.32984672    -0.30000
H881        H  0.66840765  0.52304152  0.39549067     0.14190
H882        H  0.66059018  0.04265327  0.38882071     0.14770
C883        C  0.83837802  0.46774796  0.05533824    -0.14830
C884        C  0.81467377  0.50346226  0.06665628    -0.30000
H885        H  0.82934285  0.43683822  0.07000964     0.14190
H886        H  0.80912252  0.03238260  0.04776319     0.14770
C887        C  0.97311938  0.38939194  0.14663012    -0.14830
C888        C  0.00019731  0.39686349  0.11133442    -0.30000
H889        H  0.94732285  0.41238309  0.15595093     0.14190
H890        H  0.02548840  0.37323320  0.10225169     0.14770
C891        C  0.00188071  0.08742056  0.33897787    -0.14830
C892        C  0.03252588  0.11256168  0.31794296    -0.30000
H893        H  0.96685198  0.09105113  0.33196622     0.14190
H894        H  0.56626755  0.10765071  0.32013615     0.14770
C895        C  0.62672349  0.08637876  0.13691600    -0.11670
C896        C  0.64651569  0.06519875  0.16184106    -0.13230
C897        C  0.62727848  0.16049465  0.12669703    -0.11670
C898        C  0.61455118  0.18911183  0.15070347    -0.13230
C899        C  0.65023114  0.11308300  0.06726998    -0.11670
C900        C  0.67376704  0.12417230  0.03744642    -0.13230
C901        C  0.57558672  0.11601357  0.08969009    -0.11670
C902        C  0.54424441  0.10427661  0.06906120    -0.13230
C903        C  0.90314955  0.38239363  0.34713970    -0.11670
C904        C  0.93737928  0.39720583  0.35953555    -0.13230
C905        C  0.84948751  0.33838444  0.43645548    -0.11670
C906        C  0.86057879  0.36123578  0.40754726    -0.13230
C907        C  0.82547024  0.38211221  0.34297043    -0.11670
C908        C  0.80019520  0.40530884  0.32671397    -0.13230
C909        C  0.86380953  0.31701986  0.34299733    -0.11670
C910        C  0.88383772  0.28634114  0.33021889    -0.13230
C911        C  0.86743031  0.37624826  0.85039595    -0.00880
C912        C  0.61403469  0.11515385  0.58949750    -0.00880
O913        O  0.00015861  0.43228125  0.89255355    -0.78530
O914        O  0.91271725  0.03591218  0.48376699    -0.78560
O915        O  0.89373285  0.45327509  0.99893298    -0.78560
O916        O  0.03677954  0.09157529  0.90924422    -0.78510
O917        O  0.90346553  0.50528645  0.56109803    -0.78630
O918        O  0.99318091  0.03679461  0.88405432    -0.78550
O919        O  0.96592811  0.07812096  0.45988853    -0.78530
O920        O  0.93545733  0.44110377  0.92198376    -0.78570
C921        C  0.95918330  0.43331279  0.88854538     1.11160
C922        C  0.92507871  0.07124193  0.46739101     1.11040
C923        C  0.88413104  0.47146507  0.03628877     1.11180
C924        C  0.01129687  0.07547941  0.87870034     1.11060
O925        O  0.56011469  0.97634464  0.86604932    -0.78530
O926        O  0.97646470  0.45614511  0.56016357    -0.78610
O927        O  0.52911243  0.39825482  0.95909898    -0.78550
O928        O  0.53928909  0.06491244  0.50052179    -0.78530
O929        O  0.98178897  0.05652062  0.54922021    -0.78580
O930        O  0.56831822  0.45799422  0.95929216    -0.78540
O931        O  0.58270385  0.01679014  0.92601850    -0.78500
O932        O  0.96328306  0.41157693  0.04520874    -0.78570
Co933      Co  0.52431212  0.48980367  0.92315676     1.51530
Co934      Co  0.95022702  0.50361583  0.51851984     1.51690
Co935      Co  0.95286508  0.42862327  0.98238778     1.51570
Co936      Co  0.01748633  0.04706913  0.94853959     1.51470
O937        O  0.98499693  0.48754438  0.98373435    -1.40470
C938        C  0.59064710  0.99817944  0.88674708     1.11080
C939        C  0.46037276  0.41421318  0.56669282     1.11170
C940        C  0.56705217  0.41726909  0.96165494     1.11110
C941        C  0.51544538  0.07390221  0.53517062     1.11090
O942        O  0.78229666  0.31651954  0.93546334    -0.78530
O943        O  0.68700843  0.23603267  0.91793047    -0.78560
O944        O  0.78105837  0.21955202  0.89549130    -0.78560
O945        O  0.65810909  0.30688372  0.02178131    -0.78510
O946        O  0.73432868  0.16359767  0.89699897    -0.78630
O947        O  0.69665471  0.33760460  0.96768373    -0.78550
O948        O  0.64378032  0.23020862  0.97754785    -0.78530
O949        O  0.83636725  0.27425325  0.95145891    -0.78570
C950        C  0.82304876  0.30896775  0.93642937     1.11160
C951        C  0.64846620  0.23536652  0.93519885     1.11040
C952        C  0.76071590  0.18700394  0.87483429     1.11180
C953        C  0.65970195  0.33165485  0.98845488     1.11060
O954        O  0.74115621  0.33093470  0.55295160    -0.78530
O955        O  0.78194455  0.16013599  0.97279765    -0.78610
O956        O  0.81598350  0.23281795  0.02744643    -0.78550
O957        O  0.69395860  0.18966910  0.53225879    -0.78530
O958        O  0.69130202  0.16367891  0.97452250    -0.78580
O959        O  0.81298655  0.30581505  0.02799583    -0.78540
O960        O  0.71114113  0.27003842  0.57793469    -0.78500
O961        O  0.84399156  0.19021665  0.95007703    -0.78570
Co962      Co  0.75548003  0.32032578  0.99491901     1.51530
Co963      Co  0.73449717  0.20342272  0.94597476     1.51690
Co964      Co  0.79538782  0.22662750  0.96527091     1.51570
Co965      Co  0.68623746  0.24851029  0.02927434     1.51470
O966        O  0.73932947  0.25595420  0.98865601    -1.40470
C967        C  0.72976165  0.30757148  0.58545113     1.11080
C968        C  0.82399619  0.15682504  0.96362743     1.11170
C969        C  0.82784355  0.27005370  0.04354089     1.11110
C970        C  0.68382588  0.15920424  0.50479430     1.11090
O971        O  0.53946004  0.24411220  0.82820458    -0.78530
O972        O  0.98349995  0.32536503  0.66338407    -0.78560
O973        O  0.55615991  0.29369483  0.74250469    -0.78560
O974        O  0.89805772  0.26798877  0.73903005    -0.78510
O975        O  0.57019035  0.29748635  0.67142828    -0.78630
O976        O  0.95084213  0.28135551  0.78917848    -0.78550
O977        O  0.91769509  0.29522195  0.65485524    -0.78530
O978        O  0.59425852  0.22567216  0.78413948    -0.78570
C979        C  0.58090795  0.23543587  0.82358313     1.11160
C980        C  0.94446027  0.32758440  0.65001203     1.11040
C981        C  0.57413811  0.31330149  0.71021931     1.11180
C982        C  0.91225807  0.28479152  0.77472640     1.11060
O983        O  0.94560003  0.19651387  0.78175153    -0.78530
O984        O  0.55168547  0.21875691  0.62920379    -0.78610
O985        O  0.54348392  0.16156250  0.74243752    -0.78550
O986        O  0.93412347  0.20245417  0.63275943    -0.78530
O987        O  0.96926014  0.25449512  0.59995902    -0.78580
O988        O  0.98879469  0.18417068  0.79605952    -0.78540
O989        O  0.91446121  0.18144857  0.71515942    -0.78500
O990        O  0.59194431  0.22056231  0.69186725    -0.78570
Co991      Co  0.99701581  0.24318523  0.76875190     1.51530
Co992      Co  0.51667831  0.26904213  0.64620960     1.51690
Co993      Co  0.54676692  0.22806120  0.73958840     1.51570
Co994      Co  0.92097849  0.23677437  0.68704293     1.51470
O995        O  0.98795715  0.23876800  0.70055261    -1.40470
C996        C  0.91911179  0.17322855  0.75568419     1.11080
C997        C  0.58686067  0.21148793  0.65062398     1.11170
C998        C  0.52301841  0.15074663  0.77772845     1.11110
C999        C  0.93902361  0.22518333  0.59927206     1.11090
O1000       O  0.79892327  0.47564533  0.80183353    -0.78530
O1001       O  0.74251124  0.49347755  0.61470988    -0.78560
O1002       O  0.74581275  0.39948974  0.70949286    -0.78560
O1003       O  0.83194712  0.06600355  0.69991278    -0.78510
O1004       O  0.77590954  0.43198988  0.65751839    -0.78630
O1005       O  0.82714150  0.06221382  0.77439507    -0.78550
O1006       O  0.77641453  0.04240181  0.63057298    -0.78530
O1007       O  0.73688380  0.43520958  0.79076780    -0.78570
C1008       C  0.77518159  0.44173202  0.80729284     1.11160
C1009       C  0.77889033  0.00483004  0.61252656     1.11040
C1010       C  0.76623552  0.39635279  0.67268794     1.11180
C1011       C  0.84809737  0.07294819  0.73872505     1.11060
O1012       O  0.73099165  0.07721778  0.78858892    -0.78530
O1013       O  0.67869667  0.42692797  0.65829041    -0.78610
O1014       O  0.67634264  0.50167788  0.76302924    -0.78550
O1015       O  0.70271198  0.07037835  0.68742590    -0.78530
O1016       O  0.69024232  0.00888289  0.64948377    -0.78580
O1017       O  0.71523122  0.50670535  0.82273996    -0.78540
O1018       O  0.76645054  0.11455992  0.74049235    -0.78500
O1019       O  0.66560108  0.41843122  0.73089758    -0.78570
Co1020     Co  0.77067432  0.02702229  0.78860357     1.51530
Co1021     Co  0.72794297  0.47148314  0.67681734     1.51690
Co1022     Co  0.71598809  0.45728971  0.73334154     1.51570
Co1023     Co  0.76760842  0.06691331  0.69180714     1.51470
O1024       O  0.76551561  0.50454327  0.72486988    -1.40390
C1025       C  0.74440438  0.11332344  0.77607809     1.11080
C1026       C  0.65615106  0.40851239  0.69033393     1.11170
C1027       C  0.67830713  0.50875699  0.80448254     1.11110
C1028       C  0.67828063  0.04541424  0.66383977     1.11090
C1029       C  0.89557932  0.13328108  0.77101462    -0.14830
C1030       C  0.88945375  0.09951498  0.74113153    -0.30000
H1031       H  0.87659685  0.13513875  0.80205900     0.14190
H1032       H  0.90908172  0.09939916  0.71038473     0.14770
C1033       C  0.60221354  0.35299624  0.71692414    -0.14830
C1034       C  0.62211683  0.37377555  0.68218779    -0.30000
H1035       H  0.60855395  0.36391487  0.75125283     0.14190
H1036       H  0.61587052  0.36294776  0.64781138     0.14770
C1037       C  0.73564989  0.32767053  0.63227141    -0.14830
C1038       C  0.77013964  0.35599173  0.64242755    -0.30000
H1039       H  0.70782627  0.32522969  0.65541754     0.14190
H1040       H  0.79680638  0.35775798  0.61777397     0.14770
C1041       C  0.76738989  0.17509100  0.82664276    -0.14830
C1042       C  0.73496774  0.15198059  0.80512250    -0.30000
H1043       H  0.80093691  0.17585862  0.81310357     0.14190
H1044       H  0.70211971  0.15145757  0.82051313     0.14770
C1045       C  0.60897944  0.23776794  0.90479271    -0.14830
C1046       C  0.61490934  0.23648942  0.85975936    -0.30000
H1047       H  0.57572984  0.23883728  0.91899891     0.14190
H1048       H  0.64870369  0.23395733  0.84704683     0.14770
C1049       C  0.87543532  0.25874155  0.56207659    -0.14830
C1050       C  0.90275079  0.22425860  0.56568300    -0.30000
H1051       H  0.88385673  0.28926665  0.57926751     0.14190
H1052       H  0.89383341  0.19313008  0.54953997     0.14770
C1053       C  0.84977780  0.11634035  0.97067371    -0.14830
C1054       C  0.89289619  0.10632907  0.45727835    -0.30000
H1055       H  0.83407291  0.08915598  0.98741090     0.14190
H1056       H  0.90736232  0.13373889  0.43981770     0.14770
C1057       C  0.61102128  0.39438777  0.96619416    -0.14830
C1058       C  0.61629527  0.35192015  0.97549012    -0.30000
H1059       H  0.64074164  0.41487907  0.96495055     0.14190
H1060       H  0.58648912  0.33205250  0.97981018     0.14770
C1061       C  0.63450999  0.00172138  0.86538951    -0.14830
C1062       C  0.63753695  0.51671670  0.83022902    -0.30000
H1063       H  0.66400404  0.53163430  0.89526712     0.14190
H1064       H  0.60795294  0.99015606  0.80095263     0.14770
C1065       C  0.83270250  0.47097570  0.55116662    -0.14830
C1066       C  0.80527579  0.50406186  0.56304821    -0.30000
H1067       H  0.82605726  0.43895359  0.56450603     0.14190
H1068       H  0.81859002  0.03275020  0.55908491     0.14770
C1069       C  0.93352792  0.36358701  0.61994177    -0.14830
C1070       C  0.96469572  0.39300228  0.60661756    -0.30000
H1071       H  0.90203311  0.36153442  0.60257909     0.14190
H1072       H  0.99576795  0.39689717  0.62455010     0.14770
C1073       C  0.99724759  0.10419407  0.84207665    -0.14830
C1074       C  0.02347552  0.11488021  0.80664226    -0.30000
H1075       H  0.96713020  0.12239386  0.84855683     0.14190
H1076       H  0.55654658  0.08886342  0.79363127     0.14770
C1077       C  0.62094978  0.08259138  0.62099570    -0.11670
C1078       C  0.63989952  0.06160724  0.64655381    -0.13230
C1079       C  0.62820396  0.15617114  0.60879348    -0.11670
C1080       C  0.62046245  0.18900491  0.62850454    -0.13230
C1081       C  0.63929329  0.10699371  0.54898400    -0.11670
C1082       C  0.66297860  0.12142199  0.52093542    -0.13230
C1083       C  0.56766238  0.11679162  0.58075386    -0.11670
C1084       C  0.53383919  0.10434250  0.56518845    -0.13230
C1085       C  0.90311875  0.40573993  0.83871820    -0.11670
C1086       C  0.93721578  0.42331875  0.84839961    -0.13230
C1087       C  0.85405063  0.34005040  0.92251655    -0.11670
C1088       C  0.87029530  0.36266422  0.89546594    -0.13230
C1089       C  0.82498880  0.39364244  0.84518693    -0.11670
C1090       C  0.79308266  0.41065116  0.83303839    -0.13230
C1091       C  0.87004547  0.33895183  0.82201270    -0.11670
C1092       C  0.88355229  0.31032603  0.79931658    -0.13230
C1093       C  0.87022098  0.86228241  0.33601550    -0.00880
C1094       C  0.63309376  0.61973117  0.09591996    -0.00880
O1095       O  0.97206744  0.93511339  0.40339563    -0.78530
O1096       O  0.94108445  0.56687717  0.02465027    -0.78560
O1097       O  0.90312943  0.95182076  0.51841862    -0.78560
O1098       O  0.03540310  0.59046501  0.39881155    -0.78510
O1099       O  0.89790002  0.01196592  0.06200085    -0.78630
O1100       O  0.99901692  0.53121722  0.37302976    -0.78550
O1101       O  0.93945918  0.55551391  0.95136606    -0.78530
O1102       O  0.96141363  0.89619365  0.46488007    -0.78570
C1103       C  0.95556082  0.90336959  0.42401968     1.11160
C1104       C  0.92457476  0.57435930  0.98647681     1.11040
C1105       C  0.88185681  0.97636577  0.54813541     1.11180
C1106       C  0.01385429  0.57100380  0.36715605     1.11060
O1107       O  0.57146858  0.48060337  0.37408473    -0.78530
O1108       O  0.97294138  0.96695473  0.07364733    -0.78610
O1109       O  0.53591666  0.92032691  0.51551292    -0.78550
O1110       O  0.52027805  0.58566009  0.99048170    -0.78530
O1111       O  0.03305056  0.54029991  0.04216255    -0.78580
O1112       O  0.55435764  0.92282554  0.44410742    -0.78540
O1113       O  0.58053900  0.52826341  0.43132143    -0.78500
O1114       O  0.95706893  0.89820791  0.55663619    -0.78570
Co1115     Co  0.51887969  0.97318051  0.41958267     1.51530
Co1116     Co  0.94680491  0.00749959  0.02288761     1.51690
Co1117     Co  0.97284201  0.93861738  0.51406396     1.51570
Co1118     Co  0.01708614  0.54625247  0.43886990     1.51470
O1119       O  0.99324456  0.98875595  0.48048211    -1.40470
C1120       C  0.59559518  0.50876701  0.39470787     1.11080
C1121       C  0.46857568  0.92528250  0.07877528     1.11170
C1122       C  0.56187943  0.91007733  0.48340666     1.11110
C1123       C  0.53146627  0.57746530  0.02997400     1.11090
O1124       O  0.78413731  0.81117520  0.41688416    -0.78530
O1125       O  0.69744947  0.73874008  0.40594470    -0.78560
O1126       O  0.78415160  0.71334944  0.38670083    -0.78560
O1127       O  0.66552582  0.81499362  0.50886565    -0.78510
O1128       O  0.73555362  0.66005647  0.38834417    -0.78630
O1129       O  0.70832281  0.84066476  0.45569848    -0.78550
O1130       O  0.64792217  0.73842682  0.46090573    -0.78530
O1131       O  0.83768159  0.76844676  0.43315591    -0.78570
C1132       C  0.81872517  0.79143050  0.40579046     1.11160
C1133       C  0.65785733  0.74168740  0.41908761     1.11040
C1134       C  0.76251606  0.68246067  0.36600131     1.11180
C1135       C  0.67176467  0.84110805  0.47727725     1.11060
O1136       O  0.74978939  0.83472739  0.04948257    -0.78530
O1137       O  0.78195009  0.65743219  0.46688526    -0.78610
O1138       O  0.82181688  0.73270235  0.51661944    -0.78550
O1139       O  0.70478281  0.69596043  0.03423034    -0.78530
O1140       O  0.68992685  0.66734074  0.46280372    -0.78580
O1141       O  0.82637074  0.80423440  0.50756746    -0.78540
O1142       O  0.71678202  0.77551175  0.07506880    -0.78500
O1143       O  0.84507069  0.68441037  0.44229240    -0.78570
Co1144     Co  0.76617167  0.81909671  0.47969156     1.51530
Co1145     Co  0.73846957  0.70222556  0.43683632     1.51690
Co1146     Co  0.79872529  0.72298986  0.45587956     1.51570
Co1147     Co  0.68830511  0.75405046  0.51564791     1.51470
O1148       O  0.74482335  0.75594403  0.47803148    -1.40470
C1149       C  0.73575652  0.81248766  0.08204181     1.11080
C1150       C  0.82386708  0.65250388  0.45772859     1.11170
C1151       C  0.83985535  0.76946651  0.52599462     1.11110
C1152       C  0.69709651  0.66300286  0.00957763     1.11090
O1153       O  0.51488695  0.74497577  0.33773487    -0.78530
O1154       O  0.98629959  0.83045298  0.17384764    -0.78560
O1155       O  0.55464310  0.79586767  0.25168616    -0.78560
O1156       O  0.91076150  0.78116455  0.25053632    -0.78510
O1157       O  0.57175522  0.79926492  0.18134778    -0.78630
O1158       O  0.97480979  0.80451692  0.27531737    -0.78550
O1159       O  0.92038588  0.80171020  0.16342249    -0.78530
O1160       O  0.57856991  0.72882684  0.30240629    -0.78570
C1161       C  0.55710202  0.73801489  0.33925333     1.11160
C1162       C  0.94746146  0.83392252  0.16028060     1.11040
C1163       C  0.57414718  0.81542453  0.22020592     1.11180
C1164       C  0.93663936  0.81215611  0.26193968     1.11060
O1165       O  0.92942847  0.71660076  0.29531508    -0.78530
O1166       O  0.55343395  0.72012355  0.13874717    -0.78610
O1167       O  0.54386511  0.66415100  0.24251549    -0.78550
O1168       O  0.92984782  0.70955065  0.14214882    -0.78530
O1169       O  0.97184565  0.75861788  0.11002243    -0.78580
O1170       O  0.99689613  0.67994058  0.29307129    -0.78540
O1171       O  0.91643960  0.68911930  0.22791518    -0.78500
O1172       O  0.59244352  0.72342963  0.20252257    -0.78570
Co1173     Co  0.99068062  0.74303472  0.27875481     1.51530
Co1174     Co  0.51878045  0.77169768  0.15351338     1.51690
Co1175     Co  0.54301608  0.73053205  0.24690305     1.51570
Co1176     Co  0.92308924  0.74444122  0.19737746     1.51470
O1177       O  0.99016204  0.74062734  0.20837621    -1.40470
C1178       C  0.91277279  0.68604460  0.26970870     1.11080
C1179       C  0.58831589  0.71320053  0.16101829     1.11170
C1180       C  0.52057188  0.64862459  0.27302686     1.11110
C1181       C  0.93913209  0.73146888  0.10852003     1.11090
O1182       O  0.79973916  0.98186187  0.30170798    -0.78530
O1183       O  0.74136330  0.99465238  0.11817435    -0.78560
O1184       O  0.74680224  0.90090812  0.20951957    -0.78560
O1185       O  0.84880469  0.55841558  0.21625535    -0.78510
O1186       O  0.77432663  0.93379765  0.15617273    -0.78630
O1187       O  0.82978703  0.56479333  0.28730683    -0.78550
O1188       O  0.81244666  0.52132392  0.14284897    -0.78530
O1189       O  0.74724320  0.93198787  0.29333667    -0.78570
C1190       C  0.78310502  0.94538625  0.31037623     1.11160
C1191       C  0.79053644  0.50650929  0.11006953     1.11040
C1192       C  0.76653442  0.89838661  0.17214898     1.11180
C1193       C  0.85597535  0.57402119  0.25515884     1.11060
O1194       O  0.73555974  0.57736379  0.28580124    -0.78530
O1195       O  0.67707568  0.92926084  0.16655641    -0.78610
O1196       O  0.68865378  0.99892213  0.28839726    -0.78550
O1197       O  0.72903778  0.56602517  0.16435791    -0.78530
O1198       O  0.68702986  0.50999557  0.18507909    -0.78580
O1199       O  0.73518792  0.03197494  0.33826098    -0.78540
O1200       O  0.77322628  0.61015763  0.23411972    -0.78500
O1201       O  0.66896000  0.92059095  0.24044222    -0.78570
Co1202     Co  0.77318288  0.52718393  0.29302296     1.51530
Co1203     Co  0.72860503  0.97231517  0.18090183     1.51690
Co1204     Co  0.72139029  0.95817471  0.24090305     1.51570
Co1205     Co  0.78882913  0.55958562  0.19117671     1.51470
O1206       O  0.77147130  0.00402621  0.22094620    -1.40390
C1207       C  0.74847001  0.61159993  0.26847431     1.11080
C1208       C  0.65648440  0.91121243  0.20024490     1.11170
C1209       C  0.69699646  0.01527053  0.32874461     1.11110
C1210       C  0.69152998  0.54776771  0.17143991     1.11090
C1211       C  0.89092773  0.64495864  0.28613271    -0.14830
C1212       C  0.89213407  0.60792270  0.25950386    -0.30000
H1213       H  0.87024192  0.64638082  0.31597981     0.14190
H1214       H  0.91510054  0.60788545  0.23121008     0.14770
C1215       C  0.60239969  0.85521766  0.22785815    -0.14830
C1216       C  0.62133093  0.87707381  0.19330406    -0.30000
H1217       H  0.60980931  0.86515681  0.26223702     0.14190
H1218       H  0.61353733  0.86726087  0.15896808     0.14770
C1219       C  0.73816328  0.83257878  0.12875045    -0.14830
C1220       C  0.77286393  0.85836943  0.14272696    -0.30000
H1221       H  0.70800946  0.83180118  0.14891329     0.14190
H1222       H  0.80193953  0.85919489  0.12095744     0.14770
C1223       C  0.76916543  0.67284290  0.31752204    -0.14830
C1224       C  0.73732615  0.65207213  0.29348719    -0.30000
H1225       H  0.80275574  0.67416293  0.30453442     0.14190
H1226       H  0.70387488  0.65231745  0.30747507     0.14770
C1227       C  0.62574185  0.74551545  0.38206879    -0.14830
C1228       C  0.58139373  0.74011460  0.38273630    -0.30000
H1229       H  0.64148506  0.75030531  0.34962673     0.14190
H1230       H  0.56356327  0.73625001  0.41412843     0.14770
C1231       C  0.88199884  0.76766019  0.06318554    -0.14830
C1232       C  0.90552666  0.73141881  0.07205600    -0.30000
H1233       H  0.89263429  0.79892383  0.07767414     0.14190
H1234       H  0.89393937  0.69989849  0.05875877     0.14770
C1235       C  0.84886752  0.61240462  0.46669231    -0.14830
C1236       C  0.89602493  0.61253406  0.98095792    -0.30000
H1237       H  0.83568879  0.58890912  0.48996069     0.14190
H1238       H  0.91391085  0.64230256  0.97271325     0.14770
C1239       C  0.60006321  0.88054451  0.49287796    -0.14830
C1240       C  0.63571281  0.87251391  0.46566152    -0.30000
H1241       H  0.59869064  0.86473410  0.52489529     0.14190
H1242       H  0.63874162  0.88945674  0.43438302     0.14770
C1243       C  0.63939883  0.51710047  0.37477055    -0.14830
C1244       C  0.66043509  0.01724572  0.36263601    -0.30000
H1245       H  0.62908171  0.96220586  0.33376661     0.14190
H1246       H  0.61192243  0.50819328  0.31028022     0.14770
C1247       C  0.83190907  0.96930271  0.05515610    -0.14830
C1248       C  0.80235191  0.00155095  0.06363391    -0.30000
H1249       H  0.82689605  0.93827749  0.07116716     0.14190
H1250       H  0.82645390  0.53442427  0.05401015     0.14770
C1251       C  0.93619749  0.87224916  0.13356164    -0.14830
C1252       C  0.96587082  0.90458295  0.12388187    -0.30000
H1253       H  0.90590322  0.86935757  0.11416926     0.14190
H1254       H  0.99585493  0.90945359  0.14340408     0.14770
C1255       C  0.99920608  0.59718733  0.32911490    -0.14830
C1256       C  0.02600155  0.60891377  0.29451718    -0.30000
H1257       H  0.96903942  0.61531733  0.33556474     0.14190
H1258       H  0.56006754  0.59144856  0.29204000     0.14770
C1259       C  0.63541252  0.58874499  0.13009168    -0.11670
C1260       C  0.65387589  0.56766207  0.15612195    -0.13230
C1261       C  0.63771049  0.66242919  0.11664603    -0.11670
C1262       C  0.62313364  0.69180619  0.13862515    -0.13230
C1263       C  0.66658096  0.61180327  0.06215527    -0.11670
C1264       C  0.68693367  0.62403321  0.03074038    -0.13230
C1265       C  0.59120623  0.61676525  0.07451857    -0.11670
C1266       C  0.56048147  0.60547463  0.05276315    -0.13230
C1267       C  0.90027624  0.86700404  0.37236222    -0.11670
C1268       C  0.92661564  0.87656828  0.39993658    -0.13230
C1269       C  0.83534461  0.79460879  0.36217730    -0.11670
C1270       C  0.85208169  0.81882081  0.33691767    -0.13230
C1271       C  0.83538072  0.89245119  0.34223061    -0.11670
C1272       C  0.80729346  0.91752308  0.33566533    -0.13230
C1273       C  0.89391217  0.86976309  0.29518599    -0.11670
C1274       C  0.91895505  0.85361526  0.26929313    -0.13230
C1275       C  0.87589632  0.86181380  0.83282629    -0.00880
C1276       C  0.62015990  0.61975948  0.59369135    -0.00880
O1277       O  0.97018655  0.94889080  0.89621962    -0.78530
O1278       O  0.91399639  0.54684013  0.48762430    -0.78560
O1279       O  0.90094428  0.95672831  0.01156667    -0.78560
O1280       O  0.01373655  0.58535262  0.90582606    -0.78510
O1281       O  0.90160882  0.00935369  0.56622623    -0.78630
O1282       O  0.98882175  0.52183998  0.88142533    -0.78550
O1283       O  0.95968624  0.57705338  0.44022119    -0.78530
O1284       O  0.96043832  0.90637370  0.95472833    -0.78570
C1285       C  0.94864806  0.92070237  0.91772876     1.11160
C1286       C  0.92246021  0.57471205  0.45905201     1.11040
C1287       C  0.87868419  0.97991890  0.04175629     1.11180
C1288       C  0.99763696  0.56278133  0.87416168     1.11060
O1289       O  0.56537376  0.49113949  0.87596516    -0.78530
O1290       O  0.97662897  0.96616006  0.57900071    -0.78610
O1291       O  0.53731306  0.92252763  0.00946574    -0.78550
O1292       O  0.52522623  0.58105266  0.49393104    -0.78530
O1293       O  0.98565122  0.55044405  0.54795650    -0.78580
O1294       O  0.55854919  0.92884204  0.93926110    -0.78540
O1295       O  0.57653901  0.53495075  0.93353356    -0.78500
O1296       O  0.95458858  0.90017793  0.04643418    -0.78570
Co1297     Co  0.52420823  0.98142995  0.91666028     1.51530
Co1298     Co  0.94942075  0.00324201  0.52640385     1.51690
Co1299     Co  0.97108876  0.94371885  0.00736815     1.51570
Co1300     Co  0.00318252  0.54048640  0.94725619     1.51470
O1301       O  0.99176569  0.99569272  0.97705791    -1.40470
C1302       C  0.59092585  0.51760400  0.89597754     1.11080
C1303       C  0.46475959  0.92310041  0.58437244     1.11170
C1304       C  0.56423297  0.91336307  0.97785693     1.11110
C1305       C  0.51626986  0.57729472  0.53551253     1.11090
O1306       O  0.79142529  0.81110192  0.92471069    -0.78530
O1307       O  0.70105584  0.73670480  0.90857936    -0.78560
O1308       O  0.78969368  0.71271739  0.89237278    -0.78560
O1309       O  0.66448403  0.81457070  0.00698215    -0.78510
O1310       O  0.74139635  0.65899202  0.89321995    -0.78630
O1311       O  0.71299914  0.84234465  0.95978340    -0.78550
O1312       O  0.65022572  0.73561520  0.96204619    -0.78530
O1313       O  0.84298461  0.76681800  0.94326396    -0.78570
C1314       C  0.82703404  0.79178970  0.91601780     1.11160
C1315       C  0.66089475  0.73765975  0.92037176     1.11040
C1316       C  0.76879716  0.68126723  0.87119185     1.11180
C1317       C  0.67428818  0.84217443  0.97754162     1.11060
O1318       O  0.74967673  0.83436529  0.54339568    -0.78530
O1319       O  0.78474355  0.65710121  0.97398285    -0.78610
O1320       O  0.82250479  0.73070762  0.02459137    -0.78550
O1321       O  0.70398937  0.69397843  0.52916994    -0.78530
O1322       O  0.69466005  0.66636627  0.96813807    -0.78580
O1323       O  0.82799603  0.80238315  0.01718191    -0.78540
O1324       O  0.72189178  0.77334534  0.57086984    -0.78500
O1325       O  0.84880865  0.68282128  0.95133206    -0.78570
Co1326     Co  0.76937978  0.81882932  0.98655138     1.51530
Co1327     Co  0.74233638  0.70158648  0.94152214     1.51690
Co1328     Co  0.80169079  0.72196740  0.96263647     1.51570
Co1329     Co  0.68793508  0.75443001  0.01763425     1.51470
O1330       O  0.74688167  0.75578236  0.98283947    -1.40470
C1331       C  0.74015733  0.81092645  0.57660221     1.11080
C1332       C  0.82704529  0.65186170  0.96784962     1.11170
C1333       C  0.84147499  0.76692289  0.03438896     1.11110
C1334       C  0.69021491  0.66319546  0.50418986     1.11090
O1335       O  0.51642107  0.74396515  0.84161896    -0.78530
O1336       O  0.99130060  0.82811319  0.66919318    -0.78560
O1337       O  0.55492521  0.79080621  0.75548031    -0.78560
O1338       O  0.91942443  0.77514867  0.75881144    -0.78510
O1339       O  0.56745866  0.79555147  0.68414391    -0.78630
O1340       O  0.98470431  0.78237114  0.79009794    -0.78550
O1341       O  0.92142364  0.80606352  0.67337695    -0.78530
O1342       O  0.57724640  0.72236054  0.80433169    -0.78570
C1343       C  0.55807311  0.73413901  0.84175490     1.11160
C1344       C  0.95072196  0.83567446  0.66591162     1.11040
C1345       C  0.57356892  0.80990630  0.72319693     1.11180
C1346       C  0.95037184  0.79876203  0.77525174     1.11060
O1347       O  0.93716309  0.70211312  0.78878544    -0.78530
O1348       O  0.54627586  0.71737940  0.64225363    -0.78610
O1349       O  0.53615265  0.65999283  0.74430227    -0.78550
O1350       O  0.91944069  0.71610299  0.64119998    -0.78530
O1351       O  0.96642396  0.75959222  0.60745303    -0.78580
O1352       O  0.99990358  0.68106183  0.81789625    -0.78540
O1353       O  0.91424655  0.68532265  0.72212859    -0.78500
O1354       O  0.58743704  0.71851183  0.70452723    -0.78570
Co1355     Co  0.99809225  0.72386075  0.76985261     1.51530
Co1356     Co  0.51351194  0.76973262  0.65767560     1.51690
Co1357     Co  0.53959549  0.72627799  0.75014631     1.51570
Co1358     Co  0.92214821  0.74526882  0.70005524     1.51470
O1359       O  0.98885113  0.73935306  0.70425119    -1.40470
C1360       C  0.91615251  0.67624848  0.76268063     1.11080
C1361       C  0.58201779  0.71025116  0.66288724     1.11170
C1362       C  0.51341257  0.64602424  0.77600086     1.11110
C1363       C  0.93115751  0.73623957  0.60720118     1.11090
O1364       O  0.80635969  0.97584560  0.79357957    -0.78530
O1365       O  0.75919596  0.97139681  0.62972197    -0.78560
O1366       O  0.76551687  0.90281313  0.70347648    -0.78560
O1367       O  0.84538040  0.55127783  0.71198086    -0.78510
O1368       O  0.75465897  0.93395658  0.64272227    -0.78630
O1369       O  0.82794858  0.56253209  0.78277916    -0.78550
O1370       O  0.80565131  0.51871303  0.64004400    -0.78530
O1371       O  0.74678493  0.93369764  0.78611696    -0.78570
C1372       C  0.78720878  0.93906906  0.79405974     1.11160
C1373       C  0.78256453  0.50536356  0.60750140     1.11040
C1374       C  0.76738689  0.89993219  0.66130511     1.11180
C1375       C  0.85447510  0.56775801  0.74980749     1.11060
O1376       O  0.73313015  0.57941085  0.78229428    -0.78530
O1377       O  0.67091934  0.92600667  0.66636620    -0.78610
O1378       O  0.67926016  0.99098279  0.75430490    -0.78550
O1379       O  0.72570065  0.56806237  0.66438501    -0.78530
O1380       O  0.68196448  0.51304646  0.68507453    -0.78580
O1381       O  0.71643290  0.99964494  0.81588962    -0.78540
O1382       O  0.77531646  0.61046553  0.73377504    -0.78500
O1383       O  0.68049480  0.90433035  0.73364112    -0.78570
Co1384     Co  0.76921760  0.52854018  0.79111852     1.51530
Co1385     Co  0.71900849  0.96898421  0.68719141     1.51690
Co1386     Co  0.72444473  0.95146579  0.72882916     1.51570
Co1387     Co  0.78555884  0.55807650  0.68941612     1.51470
O1388       O  0.76463621  0.00684456  0.72187162    -1.40390
C1389       C  0.75050315  0.61319538  0.76824253     1.11080
C1390       C  0.65907053  0.90059060  0.69772611     1.11170
C1391       C  0.67968843  0.99678638  0.79603012     1.11110
C1392       C  0.68774326  0.55033326  0.67031044     1.11090
C1393       C  0.89363638  0.63577456  0.77827297    -0.14830
C1394       C  0.89189818  0.59988138  0.75091963    -0.30000
H1395       H  0.87572981  0.63655257  0.80988280     0.14190
H1396       H  0.91249108  0.59995537  0.72081703     0.14770
C1397       C  0.60550110  0.84686808  0.72934239    -0.14830
C1398       C  0.62273035  0.86783423  0.69343245    -0.30000
H1399       H  0.61653321  0.85560834  0.76300918     0.14190
H1400       H  0.61061912  0.86009750  0.65992636     0.14770
C1401       C  0.74631579  0.83050283  0.62284817    -0.14830
C1402       C  0.77844700  0.86088587  0.63270394    -0.30000
H1403       H  0.71921829  0.82586594  0.64654708     0.14190
H1404       H  0.80436681  0.86574977  0.60780196     0.14770
C1405       C  0.77640125  0.67052506  0.82258395    -0.14830
C1406       C  0.74353224  0.65316491  0.79678684    -0.30000
H1407       H  0.81031060  0.66907119  0.81074314     0.14190
H1408       H  0.70998028  0.65602305  0.81016158     0.14770
C1409       C  0.62883149  0.73711263  0.88260384    -0.14830
C1410       C  0.58412992  0.73665192  0.88432447    -0.30000
H1411       H  0.64441772  0.73619336  0.84960961     0.14190
H1412       H  0.56692148  0.73889682  0.91637852     0.14770
C1413       C  0.87874865  0.77152755  0.55664653    -0.14830
C1414       C  0.90007023  0.73525993  0.56900937    -0.30000
H1415       H  0.88925365  0.80325751  0.57037988     0.14190
H1416       H  0.88824040  0.70340921  0.55685850     0.14770
C1417       C  0.85110461  0.61211953  0.98102280    -0.14830
C1418       C  0.88943743  0.60744097  0.44754680    -0.30000
H1419       H  0.83257631  0.58274123  0.98915739     0.14190
H1420       H  0.90090274  0.63097209  0.42335436     0.14770
C1421       C  0.60116855  0.88183388  0.98763346    -0.14830
C1422       C  0.63958208  0.87482562  0.96390753    -0.30000
H1423       H  0.59653565  0.86380796  0.01808386     0.14190
H1424       H  0.64618260  0.89384859  0.93447705     0.14770
C1425       C  0.63483548  0.52476336  0.87504004    -0.14830
C1426       C  0.63767643  0.99625607  0.82069787    -0.30000
H1427       H  0.66346568  0.00986680  0.88555287     0.14190
H1428       H  0.60720880  0.51216985  0.81102737     0.14770
C1429       C  0.83523971  0.96730497  0.56269290    -0.14830
C1430       C  0.80873901  0.00147420  0.57263560    -0.30000
H1431       H  0.82738898  0.93531687  0.57536492     0.14190
H1432       H  0.81407068  0.53606543  0.55078792     0.14770
C1433       C  0.93821853  0.87717157  0.64546015    -0.14830
C1434       C  0.96909713  0.90753652  0.63341491    -0.30000
H1435       H  0.90602224  0.87694150  0.62930740     0.14190
H1436       H  0.00111264  0.90943127  0.64980239     0.14770
C1437       C  0.98568742  0.58640185  0.83346170    -0.14830
C1438       C  0.01778735  0.60499655  0.80780497    -0.30000
H1439       H  0.95328247  0.60119984  0.83476196     0.14190
H1440       H  0.54780664  0.58501753  0.79235649     0.14770
C1441       C  0.63068245  0.58888325  0.62610017    -0.11670
C1442       C  0.65123019  0.56981906  0.65223811    -0.13230
C1443       C  0.62780158  0.66201476  0.61405419    -0.11670
C1444       C  0.61624571  0.69093923  0.63820251    -0.13230
C1445       C  0.64749924  0.61436888  0.55419677    -0.11670
C1446       C  0.66986802  0.62725201  0.52433909    -0.13230
C1447       C  0.57436652  0.61546742  0.58214104    -0.11670
C1448       C  0.54088821  0.60396783  0.56485833    -0.13230
C1449       C  0.88688748  0.88752064  0.87144567    -0.11670
C1450       C  0.91064983  0.90362443  0.89829759    -0.13230
C1451       C  0.84848110  0.79741828  0.87509690    -0.11670
C1452       C  0.86460403  0.81903468  0.84714480    -0.13230
C1453       C  0.83921629  0.87931930  0.81219801    -0.11670
C1454       C  0.81163050  0.90310967  0.80197222    -0.13230
C1455       C  0.91345875  0.86204746  0.80382777    -0.11670
C1456       C  0.94139822  0.84207453  0.78544544    -0.13230
loop_ 
_geom_bond_atom_site_label_1 
_geom_bond_atom_site_label_2 
_geom_bond_distance 
_geom_bond_site_symmetry_2 
_ccdc_geom_bond_type 
C1          C175   1.426       .  S
C1          C178   1.437       .  S
C1          C179   1.411       .  S
C1          C181   1.422       .  S
C2          C167   1.412       .  S
C2          C169   1.433       .  S
C2          C171   1.439       .  S
C2          C173   1.429       .  S
O3           C11   1.254       .  A
O3         Co751   1.929       .  S
O4           C12   1.253       .  A
O4         Co388   2.008   1_556  S
O5           C13   1.310       .  A
O5          Co25   2.133       .  S
O6           C14   1.279       .  A
O6          Co26   1.882       .  S
O7          C195   1.247       .  A
O7          Co24   1.944       .  S
O8           C14   1.314       .  A
O8        Co1115   2.127   1_545  S
O9           C12   1.259       .  A
O9         Co208   2.013       .  S
O10          C11   1.271       .  A
O10         Co25   1.948       .  S
C11         C176   1.391       .  S
C12         C144   1.495       .  S
C13         O189   1.275       .  A
C13         C337   1.491       .  S
C14         C163   1.475       .  S
O15          C28   1.273       .  A
O15        Co387   1.857       .  S
O16         C757   1.278       .  A
O16         Co24   2.064       .  S
O17          C30   1.265       .  A
O17        Co753   2.015   1_455  S
O18          C31   1.279       .  A
O18        Co936   1.932   1_554  S
O19         C759   1.277       .  A
O19        Co388   1.982       .  S
O20          C30   1.265       .  A
O20         Co23   2.034       .  S
O21          C28   1.318   1_545  A
O21        Co754   2.142       .  S
O22         C939   1.284       .  A
O22         Co25   1.893       .  S
Co23        O731   1.908   1_455  S
Co23       O1100   2.124   1_455  S
Co23        O379   1.843       .  S
Co23        O755   1.976   1_455  S
Co24        O368   2.010       .  S
Co24        O383   1.920       .  S
Co24        O209   2.082   1_554  S
Co25        O745   2.035       .  S
Co25         O27   1.979       .  S
Co26        O191   2.029       .  S
Co26        O928   1.929       .  S
Co26        O749   2.141       .  S
Co26        O391   1.961   1_545  S
O27        Co751   1.977       .  S
O27        Co206   1.980       .  S
O27        Co390   1.978       .  S
C28         C151   1.480       .  S
C29         O744   1.264   1_655  A
C29         O932   1.266       .  A
C29         C888   1.470   1_655  S
C30         C147   1.517       .  S
C31         O747   1.278   1_455  A
C31         C174   1.390       .  S
O32          C40   1.230       .  A
O32         Co52   1.896       .  S
O33          C41   1.257       .  A
O33         Co53   1.955       .  S
O34          C42   1.303       .  A
O34         Co54   2.147       .  S
O35          C43   1.269       .  A
O35         Co55   2.025       .  S
O36          C42   1.253       .  A
O36         Co53   1.912       .  S
O37          C43   1.270       .  A
O37         Co52   2.018       .  S
O38          C41   1.287       .  A
O38         Co55   2.087       .  S
O39          C40   1.241       .  A
O39         Co54   1.978       .  S
C40         C177   1.402       .  S
C41         C135   1.495       .  S
C42         C131   1.506       .  S
C43         C148   1.519       .  S
O44          C57   1.264       .  A
O44        Co234   1.989   1_554  S
O45          C58   1.306       .  A
O45         Co53   2.146       .  S
O46          C59   1.269       .  A
O46         Co54   1.977       .  S
O47          C60   1.248   1_554  A
O47        Co237   1.955       .  S
O48         C242   1.249       .  A
O48         Co53   1.963       .  S
O49          C59   1.290       .  A
O49         Co52   2.078       .  S
O50          C57   1.276       .  A
O50        Co237   2.035       .  S
O51          C58   1.260       .  A
O51         Co54   1.910       .  S
Co52        O226   2.000       .  S
Co52         O56   2.010       .  S
Co53         O56   2.037       .  S
Co54         O56   2.105       .  S
Co55        O229   1.964       .  S
Co55        O232   2.049       .  S
Co55         O56   2.060       .  S
C57         C127   1.509       .  S
C58         C143   1.508       .  S
C59         C321   1.495       .  S
C60         O230   1.247       .  A
C60         C172   1.397   1_556  S
O61          C69   1.302       .  A
O61        Co809   2.139   1_455  S
O62          C70   1.270       .  A
O62        Co810   2.007       .  S
O63          C71   1.274       .  A
O63         Co83   1.977       .  S
O64          C72   1.241       .  A
O64         Co84   1.934       .  S
O65          C71   1.280       .  A
O65         Co82   2.048       .  S
O66          C72   1.239       .  A
O66         Co81   1.957       .  S
O67          C70   1.270       .  A
O67         Co84   2.005       .  S
O68          C69   1.263       .  A
O68         Co83   1.884       .  S
C69         C136   1.510       .  S
C70         C159   1.497       .  S
C71         C123   1.485       .  S
C72         C182   1.374       .  S
O73          C86   1.262       .  A
O73         Co81   1.956       .  S
O74          C87   1.253       .  A
O74         Co82   1.936       .  S
O75          C88   1.307       .  A
O75         Co83   2.159       .  S
O76          C89   1.267       .  A
O76         Co84   1.993       .  S
O77          C89   1.275       .  A
O77        Co810   2.011       .  S
O78         C816   1.254       .  A
O78         Co81   1.859       .  S
O79          C86   1.292       .  A
O79         Co84   2.089       .  S
O80          C87   1.253       .  A
O80         Co83   1.977       .  S
Co81        O789   2.144       .  S
Co81         O85   2.057       .  S
Co82        O790   1.986   1_455  S
Co82        O805   2.012   1_455  S
Co82        O813   2.027   1_455  S
Co83        O813   2.021   1_455  S
Co84         O85   2.016       .  S
O85        Co810   2.045       .  S
O85        Co811   2.017       .  S
C86         C119   1.498       .  S
C87         C170   1.399       .  S
C88         O806   1.252   1_455  A
C88         C892   1.478       .  S
C89         C140   1.493       .  S
O90          C98   1.271       .  A
O90        Co474   1.932       .  S
O91         C463   1.272       .  A
O91        Co111   2.021       .  S
O92         C100   1.250       .  A
O92        Co112   2.097       .  S
O93         C101   1.257       .  A
O93        Co113   1.949       .  S
O94         C100   1.222       .  A
O94        Co111   1.980       .  S
O95         C101   1.285       .  A
O95        Co110   2.081       .  S
O96          C99   1.253       .  A
O96        Co113   1.966       .  S
O97          C98   1.267       .  A
O97        Co112   1.969       .  S
C98         C180   1.377       .  S
C99         O455   1.267       .  A
C99         C520   1.475       .  S
C100        C128   1.503       .  S
C101        C120   1.497       .  S
O102        C115   1.251       .  A
O102       Co110   1.984       .  S
O103        C116   1.305       .  A
O103       Co111   2.074       .  S
O104        C117   1.250       .  A
O104       Co112   1.991       .  S
O105        C118   1.265       .  A
O105       Co113   1.987       .  S
O106        C118   1.242       .  A
O106       Co475   1.909   1_545  S
O107        C117   1.254       .  A
O107       Co474   2.002       .  S
O108        C115   1.260       .  A
O108       Co113   2.059       .  S
O109        C116   1.278       .  A
O109       Co112   1.931       .  S
Co110       O454   1.932   1_545  S
Co110       O471   1.905       .  S
Co110       O478   1.956       .  S
Co111       O470   1.923       .  S
Co111       O114   2.068       .  S
Co112       O114   2.089       .  S
Co113       O478   2.113       .  S
O114       Co474   2.110       .  S
O114       Co477   2.063       .  S
C115        C132   1.500       .  S
C116        C124   1.496       .  S
C117        C152   1.459       .  S
C118        C168   1.376       .  S
C119        C120   1.369       .  D
C119        H121   1.086       .  S
C120        H122   1.085       .  S
C123        C124   1.360       .  D
C123        H125   1.087       .  S
C124        H126   1.086       .  S
C127        C128   1.366       .  D
C127        H129   1.086       .  S
C128        H130   1.087       .  S
C131        C132   1.366       .  D
C131        H133   1.086       .  S
C132        H134   1.087       .  S
C135        C136   1.356       .  D
C135        H137   1.088       .  S
C136        H138   1.085       .  S
C139        C241   1.486       .  S
C139        C140   1.359       .  D
C139        H141   1.086       .  S
C140        H142   1.086       .  S
C143        C326   1.365       .  D
C143        H145   1.085       .  S
C144        C325   1.362       .  D
C144        H146   1.087       .  S
C147        C148   1.365       .  D
C147        H149   1.087       .  S
C148        H150   1.086       .  S
C151        C516   1.343   1_565  D
C151        H517   1.088       .  S
C152        C515   1.349       .  D
C152        H518   1.089       .  S
H153        C515   1.086       .  S
H154        C516   1.086       .  S
C155        C195   1.506       .  S
C155        C156   1.367       .  D
C155        H157   1.086       .  S
C156        C463   1.495       .  S
C156        H522   1.086       .  S
H158        C520   1.087       .  S
C159        C160   1.352       .  D
C159        H161   1.086       .  S
C160        C757   1.488       .  S
C160        H162   1.088       .  S
C163        C164   1.358       .  D
C163        H165   1.086       .  S
C164        C816   1.479       .  S
C164        H894   1.086       .  S
H166        C892   1.086       .  S
C167        C168   1.174       .  T
C169        C170   1.184       .  T
C171        C172   1.186       .  T
C173        C174   1.181       .  T
C175        C176   1.178       .  T
C177        C178   1.179       .  T
C179        C180   1.172       .  T
C181        C182   1.174       .  T
C183        C357   1.435       .  S
C183        C360   1.427       .  S
C183        C361   1.407       .  S
C183        C363   1.398       .  S
C184        C349   1.411       .  S
C184        C351   1.428       .  S
C184        C353   1.443       .  S
C184        C355   1.430       .  S
O185        C193   1.247       .  A
O185       Co933   1.939       .  S
O186        C194   1.254       .  A
O186       Co570   2.004       .  S
O187        C195   1.281       .  A
O187       Co207   2.077   1_554  S
O188        C196   1.279       .  A
O188       Co208   1.902       .  S
O189       Co206   1.893       .  S
O190        C196   1.311       .  A
O190      Co1297   2.131   1_545  S
O191        C194   1.263       .  A
O192        C193   1.254       .  A
O192       Co207   1.935       .  S
C193        C358   1.399       .  S
C194        C326   1.500       .  S
C196        C345   1.487       .  S
O197        C210   1.284   1_565  A
O197       Co569   1.866       .  S
O198        C939   1.314       .  A
O198       Co206   2.118       .  S
O199        C212   1.291       .  A
O199       Co935   2.086   1_455  S
O200        C213   1.279       .  A
O200       Co754   1.936       .  S
O201        C941   1.280       .  A
O201       Co570   1.989       .  S
O202        C212   1.266       .  A
O202       Co205   1.998       .  S
O203        C210   1.309       .  A
O203       Co936   2.104       .  S
O204        C757   1.252       .  A
O204       Co207   1.939   1_554  S
Co205       O913   1.961       .  S
Co205      O1282   2.157   1_455  S
Co205       O561   1.851       .  S
Co205       O937   2.050   1_455  S
Co206       O550   2.002       .  S
Co206       O565   1.950       .  S
Co207       O927   2.072       .  S
Co207       O209   2.090       .  S
Co208       O746   1.933   1_556  S
Co208       O931   2.107       .  S
Co208       O573   1.964   1_545  S
O209       Co933   2.048       .  S
O209       Co572   2.066       .  S
C210        C333   1.472       .  S
C211        O926   1.312       .  A
C211        O750   1.281       .  A
C211       C1070   1.483       .  S
C212        C329   1.529       .  S
C213        O929   1.280   1_455  A
C213        C356   1.392       .  S
O214        C222   1.251       .  A
O214       Co234   1.935       .  S
O215        C223   1.260       .  A
O215       Co235   1.951       .  S
O216        C224   1.304       .  A
O216       Co236   2.150       .  S
O217        C225   1.273   1_554  A
O217       Co237   2.032       .  S
O218        C224   1.256       .  A
O218       Co235   1.893       .  S
O219        C225   1.282       .  A
O219       Co234   2.036       .  S
O220        C223   1.290       .  A
O220       Co237   2.087   1_556  S
O221        C222   1.245       .  A
O221       Co236   1.956       .  S
C222        C359   1.389       .  S
C223        C317   1.491       .  S
C224        C313   1.498       .  S
C225        C330   1.530       .  S
O226        C239   1.269       .  A
O227        C240   1.303       .  A
O227       Co235   2.144       .  S
O228        C241   1.271       .  A
O228       Co236   1.977   1_554  S
O229        C242   1.256       .  A
O230       Co235   1.972       .  S
O231        C241   1.289       .  A
O231       Co234   2.057   1_554  S
O232        C239   1.284       .  A
O233        C240   1.257       .  A
O233       Co236   1.902       .  S
Co234       O238   2.020       .  S
Co235       O238   2.040       .  S
Co236       O238   2.056       .  S
Co237       O238   2.028   1_554  S
C239        C309   1.524       .  S
C240        C325   1.503       .  S
C242        C354   1.405       .  S
O243        C251   1.281       .  A
O243       Co991   2.012   1_455  S
O244        C252   1.249       .  A
O244       Co992   1.949       .  S
O245        C253   1.269       .  A
O245       Co265   2.028       .  S
O246        C254   1.250       .  A
O246       Co266   1.931       .  S
O247        C253   1.247       .  A
O247       Co264   1.963       .  S
O248        C254   1.252       .  A
O248       Co263   1.914       .  S
O249        C252   1.280       .  A
O249       Co266   2.072       .  S
O250        C251   1.282       .  A
O250       Co265   1.993       .  S
C251        C318   1.499       .  S
C252        C341   1.494       .  S
C253        C305   1.483       .  S
C254        C364   1.365       .  S
O255        C268   1.314       .  A
O255       Co263   2.153       .  S
O256        C269   1.270       .  A
O256       Co264   1.928       .  S
O257        C270   1.265       .  A
O257       Co265   2.043       .  S
O258        C271   1.251       .  A
O258       Co266   1.954       .  S
O259        C271   1.272       .  A
O259       Co992   2.054       .  S
O260        C998   1.267       .  A
O260       Co263   1.998       .  S
O261        C268   1.258       .  A
O261       Co266   1.941       .  S
O262        C269   1.274       .  A
O262       Co265   1.993       .  S
Co263       O971   2.049       .  S
Co263       O267   2.074       .  S
Co264       O972   1.947   1_455  S
Co264       O987   2.057   1_455  S
Co264       O995   2.077   1_455  S
Co265       O995   2.064   1_455  S
Co266       O267   2.061       .  S
O267       Co992   2.075       .  S
O267       Co993   2.047       .  S
C268        C301   1.502       .  S
C269        C352   1.388       .  S
C270        O988   1.269   1_455  A
C270       C1074   1.502       .  S
C271        C322   1.492       .  S
O272        C280   1.272       .  A
O272       Co656   1.915       .  S
O273        C645   1.276       .  A
O273       Co293   2.039       .  S
O274        C282   1.258       .  A
O274       Co294   2.112       .  S
O275        C283   1.262       .  A
O275       Co295   1.959       .  S
O276        C282   1.223       .  A
O276       Co293   1.973       .  S
O277        C283   1.280       .  A
O277       Co292   2.065       .  S
O278        C281   1.260       .  A
O278       Co295   1.982       .  S
O279        C280   1.268       .  A
O279       Co294   1.969       .  S
C280        C362   1.368       .  S
C281        O637   1.268   1_545  A
C281        C702   1.478   1_545  S
C282        C310   1.517       .  S
C283        C302   1.496       .  S
O284        C297   1.246       .  A
O284       Co292   1.953       .  S
O285        C298   1.310       .  A
O285       Co293   2.077       .  S
O286        C299   1.252       .  A
O286       Co294   2.008       .  S
O287        C300   1.273       .  A
O287       Co295   1.990       .  S
O288        C300   1.248       .  A
O288       Co657   1.900   1_545  S
O289        C299   1.247       .  A
O289       Co656   1.988       .  S
O290        C297   1.268       .  A
O290       Co295   2.061       .  S
O291        C298   1.272       .  A
O291       Co294   1.913       .  S
Co292       O636   1.920   1_545  S
Co292       O653   2.013       .  S
Co292       O660   2.107       .  S
Co293       O652   1.902       .  S
Co293       O296   2.062       .  S
Co294       O296   2.089       .  S
Co295       O660   2.058       .  S
O296       Co656   2.098       .  S
O296       Co659   2.065       .  S
C297        C314   1.490       .  S
C298        C306   1.485       .  S
C299        C334   1.464       .  S
C300        C350   1.377       .  S
C301        C302   1.360       .  D
C301        H303   1.085       .  S
C302        H304   1.089       .  S
C305        C306   1.368       .  D
C305        H307   1.087       .  S
C306        H308   1.087       .  S
C309        C310   1.373       .  D
C309        H311   1.086       .  S
C310        H312   1.087       .  S
C313        C314   1.360       .  D
C313        H315   1.083       .  S
C314        H316   1.088       .  S
C317        C318   1.345       .  D
C317        H319   1.088       .  S
C318        H320   1.086       .  S
C321        C322   1.360       .  D
C321        H323   1.082       .  S
C322        H324   1.086       .  S
C325        H327   1.085       .  S
C326        H328   1.087       .  S
C329        C330   1.377       .  D
C329        H331   1.086       .  S
C330        H332   1.086       .  S
C333        C698   1.342       .  D
C333        H699   1.086       .  S
C334        C697   1.356       .  D
C334        H700   1.089       .  S
H335        C697   1.086       .  S
H336        C698   1.088   1_565  S
C337        C338   1.351       .  D
C337        H339   1.087       .  S
C338        C645   1.483       .  S
C338        H704   1.086       .  S
H340        C702   1.087   1_545  S
C341        C342   1.360       .  D
C341        H343   1.086       .  S
C342        C939   1.488       .  S
C342        H344   1.086       .  S
C345        C346   1.361       .  D
C345        H347   1.086       .  S
C346        C998   1.497       .  S
C346       H1076   1.086       .  S
H348       C1074   1.086       .  S
C349        C350   1.173       .  T
C351        C352   1.178       .  T
C353        C354   1.189       .  T
C355        C356   1.181       .  T
C357        C358   1.182       .  T
C359        C360   1.178       .  T
C361        C362   1.168       .  T
C363        C364   1.167       .  T
C365        C539   1.417       .  S
C365        C542   1.435       .  S
C365        C543   1.417       .  S
C365        C545   1.428       .  S
C366        C531   1.427       .  S
C366        C533   1.438       .  S
C366        C535   1.441       .  S
C366        C537   1.427       .  S
O367        C375   1.262       .  A
O367      Co1115   1.922       .  S
O368        C376   1.261   1_554  A
O369        C377   1.316       .  A
O369       Co389   2.151       .  S
O370        C378   1.274       .  A
O370       Co390   1.910       .  S
O371        C559   1.271   1_545  A
O371       Co388   1.861       .  S
O372        C378   1.314       .  A
O372       Co751   2.146       .  S
O373        C376   1.251       .  A
O373       Co572   1.994       .  S
O374        C375   1.258       .  A
O374       Co389   1.950       .  S
C375        C540   1.373       .  S
C376        C508   1.471       .  S
C377        O553   1.273   1_565  A
C377        C701   1.486       .  S
C378        C527   1.499       .  S
O379        C392   1.267       .  A
O380       C1121   1.321       .  A
O380       Co388   2.161   1_565  S
O381        C394   1.267       .  A
O381      Co1117   2.001   1_455  S
O382        C395   1.247   1_556  A
O382      Co1300   1.971       .  S
O383       C1123   1.257       .  A
O384        C394   1.273       .  A
O384       Co387   2.050       .  S
O385        C392   1.309       .  A
O385      Co1118   2.123       .  S
O386       C1303   1.267       .  A
O386       Co389   1.855       .  S
Co387      O1095   1.923   1_455  S
Co387       O736   2.122   1_465  S
Co387      O1119   1.943   1_455  S
Co388       O573   1.944   1_544  S
Co389      O1109   2.000       .  S
Co389       O391   1.945       .  S
Co390       O555   1.977       .  S
Co390      O1292   1.971       .  S
Co390      O1113   2.121       .  S
O391      Co1115   1.945       .  S
O391       Co570   1.946   1_565  S
C392        C515   1.471       .  S
C393       O1108   1.319       .  A
C393       O1296   1.271       .  A
C393       C1252   1.484       .  S
C394        C511   1.511       .  S
C395       O1111   1.244       .  A
C395        C538   1.389       .  S
O396        C404   1.249       .  A
O396       Co416   1.956       .  S
O397        C405   1.257       .  A
O397       Co417   1.942       .  S
O398        C406   1.289       .  A
O398       Co418   2.134       .  S
O399        C407   1.267       .  A
O399       Co419   2.013       .  S
O400        C406   1.256       .  A
O400       Co417   1.926       .  S
O401        C407   1.272       .  A
O401       Co416   2.025       .  S
O402        C405   1.291       .  A
O402       Co419   2.091       .  S
O403        C404   1.248       .  A
O403       Co418   1.949       .  S
C404        C541   1.403       .  S
C405        C499   1.488       .  S
C406        C495   1.493       .  S
C407        C512   1.516       .  S
O408        C421   1.271       .  A
O408       Co598   2.005   1_554  S
O409        C422   1.300       .  A
O409       Co417   2.138       .  S
O410        C423   1.266       .  A
O410       Co418   1.968       .  S
O411        C424   1.247       .  A
O411       Co601   1.948       .  S
O412        C606   1.247       .  A
O412       Co417   1.963       .  S
O413        C423   1.289       .  A
O413       Co416   2.070       .  S
O414        C421   1.270       .  A
O414       Co601   2.000       .  S
O415        C422   1.259       .  A
O415       Co418   1.885       .  S
Co416       O590   2.017       .  S
Co416       O420   2.036       .  S
Co417       O420   2.037       .  S
Co418       O420   2.037       .  S
Co419       O593   1.969       .  S
Co419       O596   2.030       .  S
Co419       O420   2.045       .  S
C421        C491   1.495       .  S
C422        C507   1.487       .  S
C423        C685   1.499       .  S
C424        O594   1.249   1_554  A
C424        C536   1.398       .  S
O425        C433   1.296       .  A
O425      Co1173   2.000   1_455  S
O426        C434   1.248       .  A
O426      Co1174   1.959       .  S
O427        C435   1.261       .  A
O427       Co447   2.004       .  S
O428        C436   1.257       .  A
O428       Co448   1.948       .  S
O429        C435   1.258       .  A
O429       Co446   1.989       .  S
O430        C436   1.249       .  A
O430       Co445   1.956       .  S
O431        C434   1.278       .  A
O431       Co448   2.069       .  S
O432        C433   1.299       .  A
O432       Co447   1.993       .  S
C433        C500   1.498       .  S
C434        C523   1.493       .  S
C435        C487   1.486       .  S
C436        C546   1.391       .  S
O437        C450   1.289       .  A
O437       Co445   2.068       .  S
O438        C451   1.272       .  A
O438       Co446   1.950       .  S
O439        C452   1.244       .  A
O439       Co447   2.020       .  S
O440        C453   1.251       .  A
O440       Co448   1.946       .  S
O441        C453   1.276       .  A
O441      Co1174   2.063       .  S
O442       C1180   1.233       .  A
O442       Co445   2.006       .  S
O443        C450   1.259       .  A
O443       Co448   1.960       .  S
O444        C451   1.273       .  A
O444       Co447   1.994       .  S
Co445      O1153   1.999       .  S
Co445       O449   2.108       .  S
Co446      O1154   1.958   1_455  S
Co446      O1169   2.072   1_455  S
Co446      O1177   2.077   1_455  S
Co447      O1177   2.033   1_455  S
Co448       O449   2.065       .  S
O449      Co1174   2.087       .  S
O449      Co1175   2.041       .  S
C450        C483   1.509       .  S
C451        C534   1.404       .  S
C452       O1170   1.237   1_455  A
C452       C1256   1.497       .  S
C453        C504   1.491       .  S
O454        C462   1.244       .  A
O455       Co475   2.033   1_545  S
O456        C464   1.273       .  A
O456       Co476   2.072       .  S
O457        C465   1.262       .  A
O457       Co477   1.964       .  S
O458        C464   1.240       .  A
O458       Co475   1.926       .  S
O459        C465   1.274       .  A
O459       Co474   2.044       .  S
O460        C463   1.263       .  A
O460       Co477   1.996       .  S
O461        C462   1.244       .  A
O461       Co476   1.944       .  S
C462        C544   1.382       .  S
C464        C492   1.483       .  S
C465        C484   1.499       .  S
O466        C479   1.244       .  A
O466       Co474   1.933       .  S
O467        C480   1.296       .  A
O467       Co475   2.105       .  S
O468        C481   1.309   1_565  A
O468       Co476   2.090       .  S
O469        C482   1.270       .  A
O469       Co477   1.988       .  S
O470        C482   1.247       .  A
O471        C481   1.278       .  A
O472        C479   1.272       .  A
O472       Co477   2.051       .  S
O473        C480   1.259       .  A
O473       Co476   1.897       .  S
Co475       O478   2.137   1_565  S
Co476       O478   2.075   1_565  S
C479        C496   1.481       .  S
C480        C488   1.485       .  S
C481        C516   1.489       .  S
C482        C532   1.393       .  S
C483        C484   1.368       .  D
C483        H485   1.084       .  S
C484        H486   1.088       .  S
C487        C488   1.354       .  D
C487        H489   1.087       .  S
C488        H490   1.087       .  S
C491        C492   1.355       .  D
C491        H493   1.087       .  S
C492        H494   1.087       .  S
C495        C496   1.352       .  D
C495        H497   1.082       .  S
C496        H498   1.087       .  S
C499        C500   1.345       .  D
C499        H501   1.089       .  S
C500        H502   1.086       .  S
C503        C605   1.498       .  S
C503        C504   1.362       .  D
C503        H505   1.084       .  S
C504        H506   1.086       .  S
C507        C690   1.352       .  D
C507        H509   1.085       .  S
C508        C689   1.350       .  D
C508        H510   1.088       .  S
C511        C512   1.363       .  D
C511        H513   1.087       .  S
C512        H514   1.087       .  S
C519        C559   1.481       .  S
C519        C520   1.351   1_565  D
C519        H521   1.086       .  S
C523        C524   1.366       .  D
C523        H525   1.087       .  S
C524       C1121   1.490       .  S
C524        H526   1.086       .  S
C527        C528   1.366       .  D
C527        H529   1.085       .  S
C528       C1180   1.506       .  S
C528       H1258   1.086       .  S
H530       C1256   1.086       .  S
C531        C532   1.181       .  T
C533        C534   1.188       .  T
C535        C536   1.187       .  T
C537        C538   1.181       .  T
C539        C540   1.172       .  T
C541        C542   1.184       .  T
C543        C544   1.175       .  T
C545        C546   1.178       .  T
C547        C721   1.412       .  S
C547        C724   1.429       .  S
C547        C725   1.402       .  S
C547        C727   1.430       .  S
C548        C713   1.412       .  S
C548        C715   1.424       .  S
C548        C717   1.441       .  S
C548        C719   1.427       .  S
O549        C557   1.259       .  A
O549      Co1297   1.920       .  S
O550        C558   1.254       .  A
O551        C559   1.314       .  A
O551       Co571   2.145       .  S
O552        C560   1.258       .  A
O552       Co572   1.935       .  S
O553       Co570   1.865       .  S
O554        C560   1.298       .  A
O554       Co933   2.128       .  S
O555        C558   1.251       .  A
O556        C557   1.259       .  A
O556       Co571   1.944   1_556  S
C557        C722   1.373       .  S
C558        C690   1.478       .  S
C560        C709   1.493       .  S
O561        C574   1.253       .  A
O562       C1303   1.321       .  A
O562       Co570   2.164   1_565  S
O563        C576   1.271   1_554  A
O563      Co1299   2.014   1_455  S
O564        C577   1.275       .  A
O564      Co1118   1.949       .  S
O565       C1305   1.273       .  A
O566        C576   1.276       .  A
O566       Co569   2.068       .  S
O567        C574   1.304       .  A
O567      Co1300   2.139       .  S
O568       C1121   1.268       .  A
O568       Co571   1.862       .  S
Co569      O1277   1.926   1_455  S
Co569       O918   2.134   1_465  S
Co569      O1301   1.966   1_455  S
Co571      O1291   2.005       .  S
Co571       O573   1.953   1_554  S
Co572      O1110   1.983       .  S
Co572      O1295   2.128       .  S
O573      Co1297   1.958       .  S
C574        C697   1.475       .  S
C575       O1290   1.317       .  A
C575       O1114   1.270       .  A
C575       C1434   1.479       .  S
C576        C693   1.529       .  S
C577       O1293   1.273   1_455  A
C577        C720   1.388       .  S
O578        C586   1.259       .  A
O578       Co598   1.980       .  S
O579        C587   1.253       .  A
O579       Co599   1.953       .  S
O580        C588   1.290       .  A
O580       Co600   2.132       .  S
O581        C589   1.269   1_554  A
O581       Co601   2.017       .  S
O582        C588   1.258       .  A
O582       Co599   1.916       .  S
O583        C589   1.282       .  A
O583       Co598   2.051       .  S
O584        C587   1.286       .  A
O584       Co601   2.078   1_556  S
O585        C586   1.236       .  A
O585       Co600   1.932       .  S
C586        C723   1.397       .  S
C587        C681   1.484       .  S
C588        C677   1.487       .  S
C589        C694   1.533       .  S
O590        C603   1.274       .  A
O591        C604   1.296       .  A
O591       Co599   2.134       .  S
O592        C605   1.267       .  A
O592       Co600   1.970   1_554  S
O593        C606   1.255       .  A
O594       Co599   1.968       .  S
O595        C605   1.292       .  A
O595       Co598   2.078   1_554  S
O596        C603   1.281       .  A
O597        C604   1.255       .  A
O597       Co600   1.895       .  S
Co598       O602   2.031       .  S
Co599       O602   2.038       .  S
Co600       O602   2.037       .  S
Co601       O602   2.042   1_554  S
C603        C673   1.519       .  S
C604        C689   1.482       .  S
C606        C718   1.405       .  S
O607        C615   1.287       .  A
O607      Co1355   2.059   1_455  S
O608        C616   1.249       .  A
O608      Co1356   1.962       .  S
O609        C617   1.266       .  A
O609       Co629   2.033       .  S
O610        C618   1.258       .  A
O610       Co630   1.945       .  S
O611        C617   1.245       .  A
O611       Co628   1.964       .  S
O612        C618   1.249       .  A
O612       Co627   1.957       .  S
O613        C616   1.277       .  A
O613       Co630   2.062       .  S
O614        C615   1.276       .  A
O614       Co629   2.006       .  S
C615        C682   1.490       .  S
C616        C705   1.491       .  S
C617        C669   1.482       .  S
C618        C728   1.393       .  S
O619        C632   1.290       .  A
O619       Co627   2.068       .  S
O620        C633   1.273       .  A
O620       Co628   1.929       .  S
O621        C634   1.290       .  A
O621       Co629   2.120       .  S
O622        C635   1.255       .  A
O622       Co630   1.953       .  S
O623        C635   1.275       .  A
O623      Co1356   2.055       .  S
O624       C1362   1.234       .  A
O624       Co627   2.008       .  S
O625        C632   1.260       .  A
O625       Co630   1.954       .  S
O626        C633   1.276       .  A
O626       Co629   1.988       .  S
Co627      O1335   2.001       .  S
Co627       O631   2.110       .  S
Co628      O1336   1.953   1_455  S
Co628      O1351   2.044   1_455  S
Co628      O1359   2.059   1_455  S
Co629      O1359   2.059   1_455  S
Co630       O631   2.060       .  S
O631      Co1356   2.077       .  S
O631      Co1357   2.044       .  S
C632        C665   1.504       .  S
C633        C716   1.386       .  S
C634       O1352   1.276   1_455  A
C634       C1438   1.496       .  S
C635        C686   1.490       .  S
O636        C644   1.267       .  A
O637       Co657   2.014       .  S
O638        C646   1.257       .  A
O638       Co658   2.106       .  S
O639        C647   1.261       .  A
O639       Co659   1.962       .  S
O640        C646   1.221       .  A
O640       Co657   1.971       .  S
O641        C647   1.274       .  A
O641       Co656   2.055       .  S
O642        C645   1.257       .  A
O642       Co659   1.968       .  S
O643        C644   1.262       .  A
O643       Co658   1.962       .  S
C644        C726   1.365       .  S
C646        C674   1.511       .  S
C647        C666   1.495       .  S
O648        C661   1.241       .  A
O648       Co656   1.948       .  S
O649        C662   1.307       .  A
O649       Co657   2.076       .  S
O650        C663   1.243   1_565  A
O650       Co658   1.988       .  S
O651        C664   1.271       .  A
O651       Co659   1.991       .  S
O652        C664   1.245       .  A
O653        C663   1.254       .  A
O654        C661   1.266       .  A
O654       Co659   2.050       .  S
O655        C662   1.269       .  A
O655       Co658   1.912       .  S
Co657       O660   2.072   1_565  S
Co658       O660   2.087   1_565  S
C661        C678   1.476       .  S
C662        C670   1.486       .  S
C663        C698   1.465       .  S
C664        C714   1.378       .  S
C665        C666   1.365       .  D
C665        H667   1.084       .  S
C666        H668   1.088       .  S
C669        C670   1.368       .  D
C669        H671   1.087       .  S
C670        H672   1.086       .  S
C673        C674   1.368       .  D
C673        H675   1.086       .  S
C674        H676   1.087       .  S
C677        C678   1.348       .  D
C677        H679   1.080       .  S
C678        H680   1.089       .  S
C681        C682   1.339       .  D
C681        H683   1.089       .  S
C682        H684   1.086       .  S
C685        C686   1.360       .  D
C685        H687   1.086       .  S
C686        H688   1.086       .  S
C689        H691   1.086   1_556  S
C690        H692   1.089       .  S
C693        C694   1.374       .  D
C693        H695   1.087   1_556  S
C694        H696   1.086       .  S
C701        C702   1.353       .  D
C701        H703   1.086       .  S
C705        C706   1.364       .  D
C705        H707   1.088       .  S
C706       C1303   1.487       .  S
C706        H708   1.086       .  S
C709        C710   1.366       .  D
C709        H711   1.082       .  S
C710       C1362   1.505       .  S
C710       H1440   1.086       .  S
H712       C1438   1.086       .  S
C713        C714   1.175       .  T
C715        C716   1.176       .  T
C717        C718   1.188       .  T
C719        C720   1.180       .  T
C721        C722   1.172       .  T
C723        C724   1.181       .  T
C725        C726   1.166       .  T
C727        C728   1.178       .  T
C729        C903   1.425       .  S
C729        C906   1.432       .  S
C729        C907   1.405       .  S
C729        C909   1.428       .  S
C730        C895   1.420       .  S
C730        C897   1.430       .  S
C730        C899   1.444       .  S
C730        C901   1.423       .  S
O731        C739   1.250       .  A
O732        C740   1.253       .  A
O732      Co1116   1.998   1_556  S
O733        C741   1.314       .  A
O733       Co753   2.140       .  S
O734        C742   1.281       .  A
O734       Co754   1.882       .  S
O735        C923   1.267       .  A
O735       Co752   2.003       .  S
O736        C742   1.313   1_655  A
O737        C740   1.258       .  A
O737       Co936   2.009   1_655  S
O738        C739   1.278       .  A
O738       Co753   1.974       .  S
C739        C904   1.390       .  S
C740        C872   1.488       .  S
C741        O917   1.274       .  A
C741       C1065   1.496       .  S
C742        C891   1.474       .  S
O743        C756   1.274       .  A
O743      Co1115   1.858       .  S
O744       Co752   1.983   1_455  S
O745        C758   1.271       .  A
O746        C759   1.277       .  A
O747      Co1116   1.988       .  S
O748        C758   1.263       .  A
O748       Co751   2.022       .  S
O749        C756   1.319   1_545  A
O750       Co753   1.890       .  S
Co751      O1107   1.834       .  S
Co752      O1096   2.044       .  S
Co752      O1111   1.932   1_655  S
Co752       O937   2.049   1_554  S
Co753       O755   1.982       .  S
Co754       O919   2.033   1_455  S
Co754      O1119   1.965   1_445  S
O755       Co934   1.979       .  S
O755      Co1118   1.992   1_655  S
C756        C879   1.482       .  S
C758        C875   1.520       .  S
C759        C902   1.386       .  S
O760        C768   1.236       .  A
O760       Co780   1.899       .  S
O761        C769   1.261       .  A
O761       Co781   1.959       .  S
O762        C770   1.302       .  A
O762       Co782   2.149       .  S
O763        C771   1.269       .  A
O763       Co783   2.028       .  S
O764        C770   1.251       .  A
O764       Co781   1.908       .  S
O765        C771   1.272       .  A
O765       Co780   2.022       .  S
O766        C769   1.288       .  A
O766       Co783   2.088       .  S
O767        C768   1.239       .  A
O767       Co782   1.961       .  S
C768        C905   1.393       .  S
C769        C863   1.497       .  S
C770        C859   1.506       .  S
C771        C876   1.522       .  S
O772        C785   1.266       .  A
O772       Co962   1.998   1_554  S
O773        C786   1.307       .  A
O773       Co781   2.152       .  S
O774        C787   1.271       .  A
O774       Co782   1.980       .  S
O775        C788   1.252       .  A
O775       Co965   1.959       .  S
O776        C970   1.245       .  A
O776       Co781   1.953       .  S
O777        C787   1.288       .  A
O777       Co780   2.069       .  S
O778        C785   1.273       .  A
O778       Co965   2.027       .  S
O779        C786   1.258       .  A
O779       Co782   1.906       .  S
Co780       O954   1.993       .  S
Co780       O784   2.014       .  S
Co781       O784   2.034       .  S
Co782       O784   2.099       .  S
Co783       O957   1.975       .  S
Co783       O960   2.052       .  S
Co783       O784   2.056       .  S
C785        C855   1.508       .  S
C786        C871   1.508       .  S
C787       C1049   1.491       .  S
C788        O958   1.254   1_554  A
C788        C900   1.402       .  S
O789        C797   1.301       .  A
O790        C798   1.268       .  A
O791        C799   1.273       .  A
O791       Co811   1.978       .  S
O792        C800   1.246       .  A
O792       Co812   1.936       .  S
O793        C799   1.279       .  A
O793       Co810   2.042       .  S
O794        C800   1.238       .  A
O794       Co809   1.958       .  S
O795        C798   1.274       .  A
O795       Co812   2.003       .  S
O796        C797   1.259       .  A
O796       Co811   1.888       .  S
C797        C864   1.511       .  S
C798        C887   1.482       .  S
C799        C851   1.485       .  S
C800        C910   1.386       .  S
O801        C814   1.263       .  A
O801       Co809   1.948       .  S
O802        C815   1.257       .  A
O802       Co810   1.948       .  S
O803        C816   1.309       .  A
O803       Co811   2.163       .  S
O804        C817   1.264       .  A
O804       Co812   1.988       .  S
O805        C817   1.275       .  A
O806       Co809   1.857       .  S
O807        C814   1.290       .  A
O807       Co812   2.074       .  S
O808        C815   1.250       .  A
O808       Co811   1.966       .  S
Co809       O813   2.042       .  S
Co812       O813   2.012       .  S
C814        C847   1.480       .  S
C815        C898   1.395       .  S
C817        C868   1.491       .  S
O818        C826   1.272       .  A
O818      Co1202   1.922       .  S
O819       C1191   1.274       .  A
O819       Co839   2.032       .  S
O820        C828   1.253       .  A
O820       Co840   2.088       .  S
O821        C829   1.269       .  A
O821       Co841   1.945       .  S
O822        C828   1.224       .  A
O822       Co839   1.972       .  S
O823        C829   1.296       .  A
O823       Co838   2.074       .  S
O824        C827   1.262       .  A
O824       Co841   1.970       .  S
O825        C826   1.272       .  A
O825       Co840   1.976       .  S
C826        C908   1.373       .  S
C827       O1183   1.285   1_545  A
C827       C1248   1.488       .  S
C828        C856   1.503       .  S
C829        C848   1.482       .  S
O830        C843   1.245       .  A
O830       Co838   1.986       .  S
O831        C844   1.306       .  A
O831       Co839   2.068       .  S
O832        C845   1.250       .  A
O832       Co840   1.999       .  S
O833        C846   1.272       .  A
O833       Co841   1.988       .  S
O834        C846   1.249       .  A
O834      Co1203   1.921   1_545  S
O835        C845   1.248       .  A
O835      Co1202   1.987       .  S
O836        C843   1.251       .  A
O836       Co841   2.053       .  S
O837        C844   1.280       .  A
O837       Co840   1.932       .  S
Co838      O1182   1.919   1_545  S
Co838      O1199   1.896       .  S
Co838      O1206   1.895       .  S
Co839      O1198   1.907       .  S
Co839       O842   2.068       .  S
Co840       O842   2.084       .  S
Co841      O1206   2.068       .  S
O842      Co1202   2.097       .  S
O842      Co1205   2.061       .  S
C843        C860   1.498       .  S
C844        C852   1.496       .  S
C845        C880   1.455       .  S
C846        C896   1.384       .  S
C847        C848   1.363       .  D
C847        H849   1.087       .  S
C848        H850   1.086       .  S
C851        C852   1.359       .  D
C851        H853   1.087       .  S
C852        H854   1.086       .  S
C855        C856   1.364       .  D
C855        H857   1.086       .  S
C856        H858   1.087       .  S
C859        C860   1.366       .  D
C859        H861   1.086       .  S
C860        H862   1.087       .  S
C863        C864   1.358       .  D
C863        H865   1.088       .  S
C864        H866   1.085       .  S
C867        C969   1.485       .  S
C867        C868   1.361       .  D
C867        H869   1.086       .  S
C868        H870   1.086       .  S
C871       C1054   1.367       .  D
C871        H873   1.086       .  S
C872       C1053   1.357       .  D
C872        H874   1.087       .  S
C875        C876   1.368       .  D
C875        H877   1.086       .  S
C876        H878   1.086       .  S
C879       C1244   1.344   1_565  D
C879       H1245   1.088       .  S
C880       C1243   1.350       .  D
C880       H1246   1.089       .  S
H881       C1243   1.086       .  S
H882       C1244   1.086       .  S
C883        C923   1.491       .  S
C883        C884   1.349       .  D
C883        H885   1.087       .  S
C884       C1191   1.483       .  S
C884       H1250   1.086       .  S
H886       C1248   1.087       .  S
C887        C888   1.351   1_655  D
C887        H889   1.086       .  S
C888        H890   1.087       .  S
C891        C892   1.357       .  D
C891        H893   1.087   1_455  S
C895        C896   1.177       .  T
C897        C898   1.182       .  T
C899        C900   1.189       .  T
C901        C902   1.178       .  T
C903        C904   1.179       .  T
C905        C906   1.173       .  T
C907        C908   1.170       .  T
C909        C910   1.177       .  T
C911       C1085   1.442       .  S
C911       C1088   1.427       .  S
C911       C1089   1.406       .  S
C911       C1091   1.404       .  S
C912       C1077   1.413       .  S
C912       C1079   1.427       .  S
C912       C1081   1.442       .  S
C912       C1083   1.426       .  S
O913        C921   1.243   1_455  A
O914        C922   1.253       .  A
O914      Co1298   1.999       .  S
O915        C923   1.265   1_556  A
O915       Co935   1.999       .  S
O916        C924   1.280       .  A
O916       Co936   1.909       .  S
O917       Co934   1.891       .  S
O918        C924   1.311   1_655  A
O919        C922   1.265       .  A
O920        C921   1.243       .  A
O920       Co935   1.937       .  S
C921       C1086   1.399       .  S
C922       C1054   1.500       .  S
C924       C1073   1.495   1_455  S
O925        C938   1.281       .  A
O925      Co1297   1.856       .  S
O926       Co934   2.113       .  S
O927        C940   1.277       .  A
O928        C941   1.280       .  A
O929      Co1298   1.993       .  S
O930        C940   1.253       .  A
O930       Co933   2.004       .  S
O931        C938   1.310   1_545  A
O932       Co935   1.994   1_554  S
Co933      O1289   1.869       .  S
Co934      O1278   1.987       .  S
Co934      O1293   1.965       .  S
Co935       O937   2.035       .  S
Co936      O1301   1.960   1_445  S
O937      Co1300   2.049   1_655  S
C938       C1061   1.467   1_565  S
C940       C1057   1.519       .  S
C941       C1084   1.386       .  S
O942        C950   1.255       .  A
O942       Co962   1.947       .  S
O943        C951   1.267       .  A
O943       Co963   1.968       .  S
O944        C952   1.304       .  A
O944       Co964   2.137       .  S
O945        C953   1.272   1_554  A
O945       Co965   2.012       .  S
O946        C952   1.261       .  A
O946       Co963   1.875       .  S
O947        C953   1.284       .  A
O947       Co962   2.043       .  S
O948        C951   1.287       .  A
O948       Co965   2.074   1_556  S
O949        C950   1.242       .  A
O949       Co964   1.949       .  S
C950       C1087   1.394       .  S
C951       C1045   1.508       .  S
C952       C1041   1.487       .  S
C953       C1058   1.516       .  S
O954        C967   1.267       .  A
O955        C968   1.299       .  A
O955       Co963   2.145       .  S
O956        C969   1.271       .  A
O956       Co964   1.967   1_554  S
O957        C970   1.259       .  A
O958       Co963   1.976       .  S
O959        C969   1.293       .  A
O959       Co962   2.065   1_554  S
O960        C967   1.286       .  A
O961        C968   1.256       .  A
O961       Co964   1.899       .  S
Co962       O966   2.028       .  S
Co963       O966   2.026       .  S
Co964       O966   2.035       .  S
Co965       O966   2.015   1_554  S
C967       C1037   1.521       .  S
C968       C1053   1.497       .  S
C970       C1082   1.406       .  S
O971        C979   1.287       .  A
O972        C980   1.250       .  A
O973        C981   1.266       .  A
O973       Co993   2.026       .  S
O974        C982   1.246       .  A
O974       Co994   1.927       .  S
O975        C981   1.248       .  A
O975       Co992   1.966       .  S
O976        C982   1.252       .  A
O976       Co991   1.916       .  S
O977        C980   1.279       .  A
O977       Co994   2.065       .  S
O978        C979   1.270       .  A
O978       Co993   1.968       .  S
C979       C1046   1.496       .  S
C980       C1069   1.489       .  S
C981       C1033   1.480       .  S
C982       C1092   1.369       .  S
O983        C996   1.308       .  A
O983       Co991   2.134       .  S
O984        C997   1.270       .  A
O984       Co992   1.934       .  S
O985        C998   1.268       .  A
O985       Co993   2.044       .  S
O986        C999   1.244       .  A
O986       Co994   1.946       .  S
O987        C999   1.269       .  A
O988       Co991   2.019       .  S
O989        C996   1.255       .  A
O989       Co994   1.923       .  S
O990        C997   1.265       .  A
O990       Co993   1.974       .  S
Co991       O995   2.059       .  S
Co994       O995   2.062       .  S
C996       C1029   1.488       .  S
C997       C1080   1.385       .  S
C999       C1050   1.491       .  S
O1000      C1008   1.267       .  A
O1000     Co1384   1.903       .  S
O1001      C1373   1.274       .  A
O1001     Co1021   2.037       .  S
O1002      C1010   1.257       .  A
O1002     Co1022   2.101       .  S
O1003      C1011   1.272       .  A
O1003     Co1023   1.958       .  S
O1004      C1010   1.226       .  A
O1004     Co1021   1.971       .  S
O1005      C1011   1.284       .  A
O1005     Co1020   2.049       .  S
O1006      C1009   1.259       .  A
O1006     Co1023   1.973       .  S
O1007      C1008   1.270       .  A
O1007     Co1022   1.978       .  S
C1008      C1090   1.365       .  S
C1009      O1365   1.294   1_545  A
C1009      C1430   1.489       .  S
C1010      C1038   1.514       .  S
C1011      C1030   1.479       .  S
O1012      C1025   1.240       .  A
O1012     Co1020   1.964       .  S
O1013      C1026   1.307       .  A
O1013     Co1021   2.068       .  S
O1014      C1027   1.253       .  A
O1014     Co1022   2.006       .  S
O1015      C1028   1.257       .  A
O1015     Co1023   1.967       .  S
O1016      C1028   1.244       .  A
O1016     Co1385   1.913   1_545  S
O1017      C1027   1.248       .  A
O1017     Co1384   1.992       .  S
O1018      C1025   1.250       .  A
O1018     Co1023   2.028       .  S
O1019      C1026   1.274       .  A
O1019     Co1022   1.915       .  S
Co1020     O1364   1.927   1_545  S
Co1020     O1381   2.005   1_545  S
Co1020     O1388   2.078       .  S
Co1021     O1380   1.907       .  S
Co1021     O1024   2.066       .  S
Co1022     O1024   2.083       .  S
Co1023     O1388   2.075       .  S
O1024     Co1384   2.093       .  S
O1024     Co1387   2.062       .  S
C1025      C1042   1.476       .  S
C1026      C1034   1.482       .  S
C1027      C1062   1.464       .  S
C1028      C1078   1.378       .  S
C1029      C1030   1.356       .  D
C1029      H1031   1.086       .  S
C1030      H1032   1.088       .  S
C1033      C1034   1.365       .  D
C1033      H1035   1.087       .  S
C1034      H1036   1.087       .  S
C1037      C1038   1.373       .  D
C1037      H1039   1.086       .  S
C1038      H1040   1.087       .  S
C1041      C1042   1.353       .  D
C1041      H1043   1.086       .  S
C1042      H1044   1.088       .  S
C1045      C1046   1.356       .  D
C1045      H1047   1.086       .  S
C1046      H1048   1.087       .  S
C1049      C1050   1.358       .  D
C1049      H1051   1.080       .  S
C1050      H1052   1.086       .  S
C1053      H1055   1.086       .  S
C1054      H1056   1.087       .  S
C1057      C1058   1.352       .  D
C1057      H1059   1.087       .  S
C1058      H1060   1.086       .  S
C1061      C1426   1.344   1_545  D
C1061      H1427   1.086       .  S
C1062      C1425   1.356       .  D
C1062      H1428   1.089       .  S
H1063      C1425   1.086       .  S
H1064      C1426   1.088       .  S
C1065      C1066   1.355       .  D
C1065      H1067   1.086       .  S
C1066      C1373   1.489       .  S
C1066      H1432   1.086       .  S
H1068      C1430   1.089       .  S
C1069      C1070   1.358       .  D
C1069      H1071   1.086       .  S
C1070      H1072   1.086       .  S
C1073      C1074   1.361   1_655  D
C1073      H1075   1.086       .  S
C1077      C1078   1.173       .  T
C1079      C1080   1.175       .  T
C1081      C1082   1.188       .  T
C1083      C1084   1.177       .  T
C1085      C1086   1.186       .  T
C1087      C1088   1.180       .  T
C1089      C1090   1.168       .  T
C1091      C1092   1.168       .  T
C1093      C1267   1.423       .  S
C1093      C1270   1.433       .  S
C1093      C1271   1.418       .  S
C1093      C1273   1.431       .  S
C1094      C1259   1.420       .  S
C1094      C1261   1.435       .  S
C1094      C1263   1.439       .  S
C1094      C1265   1.421       .  S
O1095      C1103   1.262       .  A
O1096      C1104   1.278   1_554  A
O1097      C1105   1.315       .  A
O1097     Co1117   2.149       .  S
O1098      C1106   1.279       .  A
O1098     Co1118   1.909       .  S
O1099      C1287   1.271   1_545  A
O1099     Co1116   1.877       .  S
O1100      C1106   1.309   1_655  A
O1101      C1104   1.264       .  A
O1101     Co1300   1.984   1_655  S
O1102      C1103   1.263       .  A
O1102     Co1117   1.960       .  S
C1103      C1268   1.380       .  S
C1104      C1236   1.478       .  S
C1105      O1281   1.273   1_565  A
C1105      C1429   1.492       .  S
C1106      C1255   1.487   1_455  S
O1107      C1120   1.268       .  A
O1108     Co1116   2.155   1_565  S
O1109      C1122   1.268       .  A
O1110      C1123   1.265   1_556  A
O1112      C1122   1.273       .  A
O1112     Co1115   2.051       .  S
O1113      C1120   1.311       .  A
O1114     Co1117   1.858       .  S
Co1116     O1301   1.948   1_544  S
Co1117     O1119   1.951       .  S
Co1118     O1283   1.984   1_455  S
O1119     Co1298   1.942   1_565  S
C1120      C1243   1.466       .  S
C1122      C1239   1.510       .  S
C1123      C1266   1.384       .  S
O1124      C1132   1.251       .  A
O1124     Co1144   1.958       .  S
O1125      C1133   1.257       .  A
O1125     Co1145   1.941       .  S
O1126      C1134   1.286       .  A
O1126     Co1146   2.128       .  S
O1127      C1135   1.268       .  A
O1127     Co1147   2.018       .  S
O1128      C1134   1.257       .  A
O1128     Co1145   1.912       .  S
O1129      C1135   1.272       .  A
O1129     Co1144   2.021       .  S
O1130      C1133   1.289       .  A
O1130     Co1147   2.087       .  S
O1131      C1132   1.245       .  A
O1131     Co1146   1.943       .  S
C1132      C1269   1.398       .  S
C1133      C1227   1.486       .  S
C1134      C1223   1.482       .  S
C1135      C1240   1.514       .  S
O1136      C1149   1.272       .  A
O1136     Co1326   2.014   1_554  S
O1137      C1150   1.301       .  A
O1137     Co1145   2.138       .  S
O1138      C1151   1.267       .  A
O1138     Co1146   1.962       .  S
O1139      C1152   1.251       .  A
O1139     Co1329   1.952       .  S
O1140      C1334   1.248       .  A
O1140     Co1145   1.967       .  S
O1141      C1151   1.289       .  A
O1141     Co1144   2.067       .  S
O1142      C1149   1.273       .  A
O1142     Co1329   2.014       .  S
O1143      C1150   1.258       .  A
O1143     Co1146   1.878       .  S
Co1144     O1318   2.006       .  S
Co1144     O1148   2.029       .  S
Co1145     O1148   2.031       .  S
Co1146     O1148   2.022       .  S
Co1147     O1321   1.964       .  S
Co1147     O1324   2.012       .  S
Co1147     O1148   2.034       .  S
C1149      C1219   1.509       .  S
C1150      C1235   1.485       .  S
C1151      C1413   1.494       .  S
C1152      O1322   1.249   1_554  A
C1152      C1264   1.398       .  S
O1153      C1161   1.295       .  A
O1154      C1162   1.250       .  A
O1155      C1163   1.267       .  A
O1155     Co1175   2.028       .  S
O1156      C1164   1.260       .  A
O1156     Co1176   1.954       .  S
O1157      C1163   1.250       .  A
O1157     Co1174   1.973       .  S
O1158      C1164   1.250       .  A
O1158     Co1173   1.958       .  S
O1159      C1162   1.276       .  A
O1159     Co1176   2.059       .  S
O1160      C1161   1.298       .  A
O1160     Co1175   1.986       .  S
C1161      C1228   1.497       .  S
C1162      C1251   1.487       .  S
C1163      C1215   1.489       .  S
C1164      C1274   1.396       .  S
O1165      C1178   1.288       .  A
O1165     Co1173   2.067       .  S
O1166      C1179   1.274       .  A
O1166     Co1174   1.946       .  S
O1167      C1180   1.248       .  A
O1167     Co1175   2.035       .  S
O1168      C1181   1.254       .  A
O1168     Co1176   1.949       .  S
O1169      C1181   1.280       .  A
O1170     Co1173   2.006       .  S
O1171      C1178   1.260       .  A
O1171     Co1176   1.958       .  S
O1172      C1179   1.276       .  A
O1172     Co1175   1.996       .  S
Co1173     O1177   2.103       .  S
Co1176     O1177   2.057       .  S
C1178      C1211   1.506       .  S
C1179      C1262   1.400       .  S
C1181      C1232   1.495       .  S
O1182      C1190   1.252       .  A
O1183     Co1203   2.048       .  S
O1184      C1192   1.262       .  A
O1184     Co1204   2.115       .  S
O1185      C1193   1.262       .  A
O1185     Co1205   1.965       .  S
O1186      C1192   1.219       .  A
O1186     Co1203   1.954       .  S
O1187      C1193   1.274       .  A
O1187     Co1202   2.053       .  S
O1188      C1191   1.255       .  A
O1188     Co1205   1.967       .  S
O1189      C1190   1.256       .  A
O1189     Co1204   1.958       .  S
C1190      C1272   1.380       .  S
C1192      C1220   1.500       .  S
C1193      C1212   1.497       .  S
O1194      C1207   1.241       .  A
O1194     Co1202   1.945       .  S
O1195      C1208   1.311       .  A
O1195     Co1203   2.061       .  S
O1196      C1209   1.316   1_565  A
O1196     Co1204   2.109       .  S
O1197      C1210   1.272       .  A
O1197     Co1205   1.995       .  S
O1198      C1210   1.245       .  A
O1199      C1209   1.283       .  A
O1200      C1207   1.264       .  A
O1200     Co1205   2.038       .  S
O1201      C1208   1.285       .  A
O1201     Co1204   1.940       .  S
Co1203     O1206   1.990   1_565  S
Co1204     O1206   2.140   1_565  S
C1207      C1224   1.470       .  S
C1208      C1216   1.488       .  S
C1209      C1244   1.491       .  S
C1210      C1260   1.386       .  S
C1211      C1212   1.366       .  D
C1211      H1213   1.084       .  S
C1212      H1214   1.088       .  S
C1215      C1216   1.365       .  D
C1215      H1217   1.086       .  S
C1216      H1218   1.087       .  S
C1219      C1220   1.361       .  D
C1219      H1221   1.086       .  S
C1220      H1222   1.087       .  S
C1223      C1224   1.344       .  D
C1223      H1225   1.082       .  S
C1224      H1226   1.088       .  S
C1227      C1228   1.344       .  D
C1227      H1229   1.089       .  S
C1228      H1230   1.086       .  S
C1231      C1333   1.500       .  S
C1231      C1232   1.362       .  D
C1231      H1233   1.084       .  S
C1232      H1234   1.086       .  S
C1235      C1418   1.354       .  D
C1235      H1237   1.086       .  S
C1236      C1417   1.354       .  D
C1236      H1238   1.086       .  S
C1239      C1240   1.363       .  D
C1239      H1241   1.087       .  S
C1240      H1242   1.087       .  S
C1247      C1287   1.496       .  S
C1247      C1248   1.358   1_565  D
C1247      H1249   1.086       .  S
C1251      C1252   1.361       .  D
C1251      H1253   1.087       .  S
C1252      H1254   1.086       .  S
C1255      C1256   1.360   1_655  D
C1255      H1257   1.086       .  S
C1259      C1260   1.177       .  T
C1261      C1262   1.185       .  T
C1263      C1264   1.185       .  T
C1265      C1266   1.177       .  T
C1267      C1268   1.177       .  T
C1269      C1270   1.180       .  T
C1271      C1272   1.175       .  T
C1273      C1274   1.179       .  T
C1275      C1449   1.415       .  S
C1275      C1452   1.428       .  S
C1275      C1453   1.394       .  S
C1275      C1455   1.420       .  S
C1276      C1441   1.418       .  S
C1276      C1443   1.429       .  S
C1276      C1445   1.440       .  S
C1276      C1447   1.429       .  S
O1277      C1285   1.262       .  A
O1278      C1286   1.249       .  A
O1279      C1287   1.316       .  A
O1279     Co1299   2.160       .  S
O1280      C1288   1.251   1_455  A
O1280     Co1300   1.901       .  S
O1281     Co1298   1.869       .  S
O1282      C1288   1.303       .  A
O1283      C1286   1.253       .  A
O1284      C1285   1.260       .  A
O1284     Co1299   1.941   1_556  S
C1285      C1450   1.377       .  S
C1286      C1418   1.475       .  S
C1288      C1437   1.486       .  S
O1289      C1302   1.251       .  A
O1290     Co1298   2.146   1_565  S
O1291      C1304   1.267   1_554  A
O1292      C1305   1.278       .  A
O1294      C1304   1.276       .  A
O1294     Co1297   2.065       .  S
O1295      C1302   1.300       .  A
O1296     Co1299   1.861       .  S
Co1299     O1301   1.949   1_554  S
C1302      C1425   1.475       .  S
C1304      C1421   1.523       .  S
C1305      C1448   1.391       .  S
O1306      C1314   1.255       .  A
O1306     Co1326   1.967       .  S
O1307      C1315   1.258       .  A
O1307     Co1327   1.952       .  S
O1308      C1316   1.294       .  A
O1308     Co1328   2.143       .  S
O1309      C1317   1.270   1_554  A
O1309     Co1329   2.021       .  S
O1310      C1316   1.258       .  A
O1310     Co1327   1.915       .  S
O1311      C1317   1.278       .  A
O1311     Co1326   2.037       .  S
O1312      C1315   1.287       .  A
O1312     Co1329   2.082   1_556  S
O1313      C1314   1.241       .  A
O1313     Co1328   1.938       .  S
C1314      C1451   1.393       .  S
C1315      C1409   1.492       .  S
C1316      C1405   1.496       .  S
C1317      C1422   1.527       .  S
O1318      C1331   1.272       .  A
O1319      C1332   1.298       .  A
O1319     Co1327   2.145       .  S
O1320      C1333   1.267       .  A
O1320     Co1328   1.969   1_554  S
O1321      C1334   1.252       .  A
O1322     Co1327   1.962       .  S
O1323      C1333   1.291       .  A
O1323     Co1326   2.074   1_554  S
O1324      C1331   1.276       .  A
O1325      C1332   1.257       .  A
O1325     Co1328   1.895       .  S
Co1326     O1330   2.038       .  S
Co1327     O1330   2.041       .  S
Co1328     O1330   2.041       .  S
Co1329     O1330   2.051   1_554  S
C1331      C1401   1.501       .  S
C1332      C1417   1.493       .  S
C1334      C1446   1.403       .  S
O1335      C1343   1.296       .  A
O1336      C1344   1.254       .  A
O1337      C1345   1.267       .  A
O1337     Co1357   2.025       .  S
O1338      C1346   1.264       .  A
O1338     Co1358   1.956       .  S
O1339      C1345   1.248       .  A
O1339     Co1356   1.959       .  S
O1340      C1346   1.249       .  A
O1340     Co1355   1.922       .  S
O1341      C1344   1.279       .  A
O1341     Co1358   2.051       .  S
O1342      C1343   1.298       .  A
O1342     Co1357   1.994       .  S
C1343      C1410   1.501       .  S
C1344      C1433   1.485       .  S
C1345      C1397   1.483       .  S
C1346      C1456   1.383       .  S
O1347      C1360   1.261       .  A
O1347     Co1355   2.026       .  S
O1348      C1361   1.272       .  A
O1348     Co1356   1.939       .  S
O1349      C1362   1.247       .  A
O1349     Co1357   2.035       .  S
O1350      C1363   1.251       .  A
O1350     Co1358   1.949       .  S
O1351      C1363   1.272       .  A
O1352     Co1355   1.978       .  S
O1353      C1360   1.255       .  A
O1353     Co1358   1.982       .  S
O1354      C1361   1.274       .  A
O1354     Co1357   1.988       .  S
Co1355     O1359   2.055       .  S
Co1358     O1359   2.027       .  S
C1360      C1393   1.490       .  S
C1361      C1444   1.392       .  S
C1363      C1414   1.483       .  S
O1364      C1372   1.259       .  A
O1365     Co1385   2.096       .  S
O1366      C1374   1.262       .  A
O1366     Co1386   2.074       .  S
O1367      C1375   1.254       .  A
O1367     Co1387   1.948       .  S
O1368      C1374   1.264       .  A
O1368     Co1385   1.998       .  S
O1369      C1375   1.276       .  A
O1369     Co1384   2.057       .  S
O1370      C1373   1.255       .  A
O1370     Co1387   1.973       .  S
O1371      C1372   1.251       .  A
O1371     Co1386   1.943       .  S
C1372      C1454   1.364       .  S
C1374      C1402   1.489       .  S
C1375      C1394   1.485       .  S
O1376      C1389   1.237       .  A
O1376     Co1384   1.942       .  S
O1377      C1390   1.283       .  A
O1377     Co1385   2.031       .  S
O1378      C1391   1.254       .  A
O1378     Co1386   1.969       .  S
O1379      C1392   1.272       .  A
O1379     Co1387   1.992       .  S
O1380      C1392   1.248       .  A
O1381      C1391   1.262       .  A
O1382      C1389   1.269       .  A
O1382     Co1387   2.074       .  S
O1383      C1390   1.259       .  A
O1383     Co1386   1.952       .  S
Co1385     O1388   2.052   1_565  S
Co1386     O1388   2.084   1_565  S
C1389      C1406   1.487       .  S
C1390      C1398   1.477       .  S
C1391      C1426   1.460       .  S
C1392      C1442   1.383       .  S
C1393      C1394   1.350       .  D
C1393      H1395   1.084       .  S
C1394      H1396   1.089       .  S
C1397      C1398   1.363       .  D
C1397      H1399   1.087       .  S
C1398      H1400   1.087       .  S
C1401      C1402   1.360       .  D
C1401      H1403   1.087       .  S
C1402      H1404   1.086       .  S
C1405      C1406   1.353       .  D
C1405      H1407   1.080       .  S
C1406      H1408   1.088       .  S
C1409      C1410   1.348       .  D
C1409      H1411   1.088       .  S
C1410      H1412   1.086       .  S
C1413      C1414   1.356       .  D
C1413      H1415   1.087       .  S
C1414      H1416   1.086       .  S
C1417      H1419   1.085       .  S
C1418      H1420   1.088       .  S
C1421      C1422   1.369       .  D
C1421      H1423   1.087   1_556  S
C1422      H1424   1.086       .  S
C1429      C1430   1.351   1_565  D
C1429      H1431   1.084       .  S
C1433      C1434   1.360       .  D
C1433      H1435   1.088       .  S
C1434      H1436   1.086   1_655  S
C1437      C1438   1.359   1_655  D
C1437      H1439   1.084       .  S
C1441      C1442   1.177       .  T
C1443      C1444   1.180       .  T
C1445      C1446   1.188       .  T
C1447      C1448   1.181       .  T
C1449      C1450   1.172       .  T
C1451      C1452   1.180       .  T
C1453      C1454   1.164       .  T
C1455      C1456   1.172       .  T
