geometry optimzed in LAMMPS
_audit_creation_date              2020-12-01 
_audit_creation_method            'lammps2cif' 
_symmetry_space_group_name_H-M    'P1' 
_symmetry_Int_Tables_number       1 
_symmetry_cell_setting            triclinic 
loop_ 
_symmetry_equiv_pos_as_xyz 
  x,y,z 
_cell_length_a                    45.11424652 
_cell_length_b                    45.41665118201292 
_cell_length_c                    38.15074488006815 
_cell_angle_alpha                 89.11656641482578 
_cell_angle_beta                  91.02265110100852 
_cell_angle_gamma                 124.02759688857877 
loop_ 
_atom_site_label 
_atom_site_type_symbol 
_atom_site_fract_x 
_atom_site_fract_y 
_atom_site_fract_z 
_atom_site_charge 
N1          N  0.53798735  0.85618045  0.47792246    -0.02600
C2          C  0.52395563  0.85826190  0.01110392     0.00000
C3          C  0.50199031  0.82370879  0.02249113    -0.22900
C4          C  0.50765572  0.80370299  0.00092683    -0.23100
C5          C  0.52933951  0.82197766  0.47541637    -0.00100
H6          H  0.48507997  0.81426364  0.04533198     0.13600
H7          H  0.49673267  0.77599437  0.00555213     0.13700
N8          N  0.26279256  0.87534216  0.48022953    -0.02600
C9          C  0.28782756  0.87549433  0.01777441     0.00000
C10         C  0.31598688  0.87451501  0.00564145    -0.22900
C11         C  0.30106921  0.86617420  0.45400596    -0.23100
C12         C  0.27682619  0.87534531  0.44864972    -0.00100
H13         H  0.33800460  0.87768294  0.02097976     0.13600
H14         H  0.31912524  0.86756395  0.43469583     0.13700
O15         O  0.55847738  0.05363792  0.29689609    -0.79300
O16         O  0.57222947  0.12822088  0.17392696    -0.79300
O17         O  0.53064894  0.02904766  0.21489635    -0.79300
O18         O  0.59106151  0.16799496  0.28113310    -0.79300
O19         O  0.52872649  0.05792028  0.17123756    -0.79400
O20         O  0.59979018  0.12731319  0.29836644    -0.79300
O21         O  0.60073958  0.15055263  0.22201617    -0.79300
O22         O  0.50438647  0.01210794  0.27960910    -0.79300
C23         C  0.53269463  0.02125059  0.29716618     1.10400
C24         C  0.60170277  0.14754909  0.18987042     1.10300
C25         C  0.53305232  0.03449170  0.18237766     1.10400
C26         C  0.61105490  0.15980050  0.29552244     1.10300
O27         O  0.53716546  0.12569919  0.31794470    -0.79300
O28         O  0.46874436  0.05458338  0.20084321    -0.79400
O29         O  0.47011965  0.05078072  0.26815717    -0.79300
O30         O  0.56338551  0.18130895  0.22144236    -0.79300
O31         O  0.51427714  0.13320091  0.20044974    -0.79300
O32         O  0.49691754  0.05346150  0.31673950    -0.79300
O33         O  0.51516900  0.13327380  0.26978265    -0.79300
O34         O  0.45985100  0.00337239  0.21991473    -0.79300
Co35       Co  0.54794454  0.09013376  0.30326637     1.51500
Co36       Co  0.52322640  0.09330488  0.19451684     1.51700
Co37       Co  0.50171686  0.04226515  0.24085866     1.51600
Co38       Co  0.55626965  0.13959764  0.24286970     1.51500
O39         O  0.54190125  0.09081660  0.24893129    -1.41200
C40         C  0.51885864  0.13567724  0.30287066     1.10300
C41         C  0.44933999  0.01993433  0.20204055     1.10400
C42         C  0.46834818  0.04441327  0.30044642     1.10400
C43         C  0.53615295  0.16747850  0.20133146     1.10300
N44         N  0.48272064  0.29726903  0.49214081    -0.02600
C45         C  0.50235504  0.30199199  0.46324966     0.00000
C46         C  0.53666157  0.33134681  0.46958785    -0.22900
C47         C  0.54065047  0.33329771  0.50544375    -0.23100
C48         C  0.50698597  0.30941977  0.51899682    -0.00100
H49         H  0.55881206  0.34277544  0.45160948     0.13600
H50         H  0.56320208  0.33983501  0.00991612     0.13700
N51         N  0.80228789  0.30165424  0.49707212    -0.02600
C52         C  0.80671622  0.28812179  0.46740697     0.00000
C53         C  0.81390298  0.26318830  0.47714233    -0.22900
C54         C  0.81321952  0.25901151  0.00778878    -0.23100
C55         C  0.80358673  0.28100437  0.01997196    -0.00100
H56         H  0.81457755  0.24503204  0.45963809     0.13600
H57         H  0.81074126  0.23678057  0.02164530     0.13700
O58         O  0.06274174  0.62288838  0.31622993    -0.79300
O59         O  0.01153470  0.58756656  0.16472401    -0.79300
O60         O  0.12405984  0.65840924  0.22642557    -0.79300
O61         O  0.98784182  0.61314412  0.27100203    -0.79300
O62         O  0.07714298  0.63969994  0.19197421    -0.79400
O63         O  0.98938532  0.58367312  0.31579087    -0.79300
O64         O  0.00238746  0.61570375  0.20301625    -0.79300
O65         O  0.07319870  0.65358657  0.26742514    -0.79300
C66         C  0.07507705  0.65258527  0.30041692     1.10400
C67         C  0.99953540  0.60605952  0.17194514     1.10300
C68         C  0.10981172  0.66432844  0.20086751     1.10400
C69         C  0.98137823  0.60432472  0.30278050     1.10300
O70         O  0.98477486  0.52212868  0.29117599    -0.79300
O71         O  0.06844493  0.58077873  0.16211108    -0.79400
O72         O  0.10272565  0.61223142  0.28199015    -0.79300
O73         O  0.96402534  0.53696351  0.20233813    -0.79300
O74         O  0.00987614  0.53165408  0.20065754    -0.79300
O75         O  0.05830136  0.55816037  0.29374375    -0.79300
O76         O  0.94829848  0.53617398  0.27049493    -0.79300
O77         O  0.09105205  0.58732265  0.21542838    -0.79300
Co78       Co  0.02434531  0.57203244  0.30071949     1.51500
Co79       Co  0.04356664  0.58403310  0.19992714     1.51700
Co80       Co  0.07853866  0.61966163  0.24134298     1.51600
Co81       Co  0.97868653  0.57672697  0.23700095     1.51500
O82         O  0.02602216  0.58394472  0.24855706    -1.41200
C83         C  0.95327889  0.51438582  0.28632824     1.10300
C84         C  0.09083544  0.58056204  0.18248277     1.10400
C85         C  0.09107833  0.58227283  0.29607942     1.10400
C86         C  0.97702173  0.51899333  0.19463742     1.10300
N87         N  0.27020254  0.58627430  0.99149438    -0.02600
C88         C  0.27596349  0.60562858  0.02106952     0.00000
C89         C  0.29320890  0.64103128  0.01140294    -0.22900
C90         C  0.29422511  0.64102742  0.47122408    -0.23100
C91         C  0.27676539  0.60559721  0.46204563    -0.00100
H92         H  0.29780641  0.66219495  0.02828017     0.13600
H93         H  0.29698247  0.66221982  0.45511571     0.13700
N94         N  0.81415682  0.33726311  0.99837332    -0.02600
C95         C  0.81463217  0.35087035  0.03026349     0.00000
C96         C  0.80663169  0.37596477  0.02585495    -0.22900
C97         C  0.79607073  0.37704494  0.49118485    -0.23100
C98         C  0.80248205  0.35392415  0.47556026    -0.00100
H99         H  0.80762575  0.39321770  0.04571358     0.13600
H100        H  0.79441392  0.39738344  0.47802840     0.13700
N101        N  0.81576567  0.62583638  0.48802188    -0.02600
C102        C  0.80828285  0.59149881  0.01761286     0.00000
C103        C  0.78359279  0.55557702  0.01119847    -0.22900
C104        C  0.78688689  0.56832864  0.47705203    -0.23100
C105        C  0.80622347  0.60205823  0.46219550    -0.00100
H106        H  0.77806890  0.53416471  0.02878292     0.13600
H107        H  0.77790942  0.54352186  0.46433319     0.13700
N108        N  0.22707114  0.86593581  0.48515284    -0.02600
C109        C  0.21182761  0.85769377  0.01946736     0.00000
C110        C  0.18481964  0.86239811  0.01074782    -0.22900
C111        C  0.18497616  0.87667088  0.47671995    -0.23100
C112        C  0.20578110  0.86741220  0.46023809    -0.00100
H113        H  0.16295761  0.85681749  0.02724434     0.13600
H114        H  0.16272816  0.87613439  0.46477049     0.13700
O115        O  0.48726001  0.50222349  0.19687646    -0.79300
O116        O  0.49828177  0.56154356  0.32075604    -0.79300
O117        O  0.55067540  0.52239072  0.26763324    -0.79300
O118        O  0.44961935  0.52870324  0.19887138    -0.79300
O119        O  0.49969827  0.51493575  0.27813257    -0.79400
O120        O  0.47337217  0.53704320  0.14654216    -0.79300
O121        O  0.46027217  0.54081302  0.27592356    -0.79300
O122        O  0.54041060  0.51262142  0.19740525    -0.79300
C123        C  0.50697082  0.49093888  0.19283799     1.10400
C124        C  0.46690198  0.54937343  0.30889432     1.10300
C125        C  0.51992009  0.50400367  0.28108226     1.10400
C126        C  0.44639212  0.52849544  0.16498887     1.10300
O127        O  0.53188276  0.60215862  0.16568702    -0.79300
O128        O  0.56735138  0.57696060  0.30337375    -0.79400
O129        O  0.58964030  0.58836209  0.18658672    -0.79300
O130        O  0.50153561  0.61528590  0.25930905    -0.79300
O131        O  0.54738112  0.61947019  0.28288569    -0.79300
O132        O  0.54452621  0.55511157  0.15130875    -0.79300
O133        O  0.49183352  0.60499569  0.19092198    -0.79300
O134        O  0.60055309  0.59814919  0.25674620    -0.79300
Co135      Co  0.50827476  0.55291536  0.18325161     1.51500
Co136      Co  0.52242293  0.56718330  0.27843041     1.51700
Co137      Co  0.56774476  0.55675616  0.22715050     1.51600
Co138      Co  0.48177486  0.57169521  0.23099022     1.51500
O139        O  0.53144232  0.57126159  0.22845412    -1.41200
C140        C  0.51623173  0.61751253  0.16867763     1.10300
C141        C  0.59828393  0.59428702  0.28958292     1.10400
C142        C  0.57794627  0.57709227  0.15610507     1.10400
C143        C  0.52949969  0.63256875  0.27755519     1.10300
N144        N  0.45882473  0.30866150  0.49132365    -0.02600
C145        C  0.43564394  0.29867798  0.01801854     0.00000
C146        C  0.40658554  0.29692567  0.51016238    -0.22900
C147        C  0.40537554  0.29615783  0.47410354    -0.23100
C148        C  0.43900170  0.30677887  0.46257103    -0.00100
H149        H  0.38107903  0.28571373  0.02409372     0.13600
H150        H  0.38507466  0.29604421  0.45841513     0.13700
N151        N  0.28305356  0.56092675  0.49117602    -0.02600
C152        C  0.27757936  0.54164905  0.46171747     0.00000
C153        C  0.24767853  0.50767187  0.46743408    -0.22900
C154        C  0.23699518  0.50243024  0.99879718    -0.23100
C155        C  0.26337731  0.53385896  0.01489822    -0.00100
H156        H  0.23741870  0.48548939  0.44974487     0.13600
H157        H  0.22226812  0.47607958  0.01019000     0.13700
N158        N  0.79886700  0.64456340  0.48705375    -0.02600
C159        C  0.79482616  0.64827934  0.01408564     0.00000
C160        C  0.81503843  0.69737001  0.50614122    -0.22900
C161        C  0.81806850  0.69935552  0.47017617    -0.23100
C162        C  0.80363506  0.66504035  0.45865310    -0.00100
H163        H  0.81867929  0.70532046  0.02097248     0.13600
H164        H  0.82163494  0.72126279  0.45471563     0.13700
N165        N  0.55661207  0.81463689  0.47084163    -0.02600
C166        C  0.58029741  0.82753352  0.44397324     0.00000
C167        C  0.61463095  0.84698886  0.45823434    -0.22900
C168        C  0.61163287  0.83922789  0.49349826    -0.23100
C169        C  0.58233784  0.82274220  0.00196424    -0.00100
H170        H  0.63902045  0.85731663  0.44374165     0.13600
H171        H  0.64030113  0.85009849  0.01167169     0.13700
C172        C  0.33769945  0.51562404  0.42027739    -0.04600
C173        C  0.35806020  0.54382603  0.39663382     0.09500
C174        C  0.35568611  0.57343109  0.39761319    -0.02000
C175        C  0.33294306  0.57470798  0.42178635    -0.00300
C176        C  0.30865762  0.54454865  0.44240300    -0.03900
C177        C  0.31409216  0.51630245  0.44365832     0.03100
C178        C  0.38559648  0.54441610  0.37424483     0.10000
C179        C  0.37730943  0.60310200  0.37394817     0.35900
C180        C  0.29902984  0.48978523  0.47145557     0.39300
C181        C  0.37555770  0.52441359  0.34319574    -0.04200
C182        C  0.40146311  0.52423619  0.32286597     0.02900
C183        C  0.43831384  0.54524313  0.33273681    -0.03800
C184        C  0.44799537  0.56518928  0.36434361    -0.00100
C185        C  0.42176648  0.56425786  0.38497972    -0.02600
C186        C  0.33837632  0.50431437  0.33194481     0.36600
C187        C  0.48508559  0.58824944  0.37552726     0.40200
C188        C  0.38956020  0.50188313  0.29206659     0.39400
C189        C  0.43207799  0.58412506  0.41747193     0.36300
C190        C  0.34155481  0.48594100  0.42086994     0.37000
C191        C  0.34077532  0.60924682  0.42988786     0.40200
N192        N  0.37975267  0.48393434  0.26755289    -0.37800
N193        N  0.30870823  0.48840236  0.32298866    -0.39400
N194        N  0.51452751  0.60685003  0.38477326    -0.37200
N195        N  0.44027026  0.59997059  0.44333800    -0.39600
N196        N  0.39427900  0.62665492  0.35489095    -0.39300
N197        N  0.35115876  0.63825821  0.43664728    -0.37000
N198        N  0.28772986  0.46865624  0.49364322    -0.38000
N199        N  0.34455514  0.46224496  0.42110915    -0.39700
C200        C  0.29328524  0.49934653  0.09083431    -0.04600
C201        C  0.33078328  0.52082953  0.08736913     0.09500
C202        C  0.34629382  0.55006952  0.06422602    -0.02000
C203        C  0.32460936  0.55654435  0.04296114    -0.00300
C204        C  0.28658258  0.53283658  0.04349815    -0.03900
C205        C  0.27136528  0.50593946  0.06981338     0.03100
C206        C  0.35485157  0.51518690  0.10994746     0.10000
C207        C  0.38503326  0.57415884  0.06288511     0.35900
C208        C  0.23346486  0.48667237  0.07710111     0.39300
C209        C  0.37377611  0.50217610  0.09508567    -0.04200
C210        C  0.40220020  0.50420430  0.11382117     0.02900
C211        C  0.41206462  0.51940308  0.14779587    -0.03800
C212        C  0.39115517  0.53005430  0.16348805    -0.00100
C213        C  0.36282351  0.52795990  0.14458681    -0.02600
C214        C  0.36493644  0.48820158  0.05970986     0.36600
C215        C  0.40026549  0.54600719  0.19802491     0.40200
C216        C  0.42145818  0.49102918  0.09764474     0.39400
C217        C  0.34322205  0.54114501  0.15998245     0.36300
C218        C  0.27730387  0.47033819  0.11600194     0.37000
C219        C  0.34931822  0.59099593  0.52232095     0.40200
N220        N  0.43668622  0.48043404  0.08461747    -0.37800
N221        N  0.35789505  0.47723475  0.03143689    -0.39400
N222        N  0.40740070  0.55893507  0.22546509    -0.37200
N223        N  0.32750345  0.55159219  0.17216762    -0.39600
N224        N  0.41586414  0.59327207  0.06190686    -0.39300
N225        N  0.36515102  0.61655713  0.50546772    -0.37000
N226        N  0.20327159  0.47153116  0.08314586    -0.38000
N227        N  0.26463317  0.44720474  0.13613208    -0.39700
C228        C  0.55637445  0.78044928  0.35465773    -0.04600
C229        C  0.56402505  0.75455003  0.36082862     0.09500
C230        C  0.57737563  0.75290458  0.39384961    -0.02000
C231        C  0.58400162  0.77732397  0.42022289    -0.00300
C232        C  0.57492346  0.80266278  0.41488937    -0.03900
C233        C  0.56104007  0.80383930  0.38177200     0.03100
C234        C  0.55514878  0.72648891  0.33421817     0.10000
C235        C  0.58308547  0.72488424  0.40117887     0.35900
C236        C  0.55146590  0.82902232  0.37538163     0.39300
C237        C  0.58259338  0.72580377  0.31769187    -0.04200
C238        C  0.57447269  0.69553413  0.29867637     0.02900
C239        C  0.53862260  0.66608586  0.29497140    -0.03800
C240        C  0.51097417  0.66798414  0.30968459    -0.00100
C241        C  0.51935351  0.69755596  0.32985001    -0.02600
C242        C  0.61939616  0.75587850  0.32137895     0.36600
C243        C  0.47368814  0.63890936  0.30566264     0.40200
C244        C  0.60305259  0.69483236  0.28283839     0.39400
C245        C  0.49127062  0.69728181  0.34818594     0.36300
C246        C  0.54350840  0.78282675  0.32035704     0.37000
C247        C  0.59984264  0.77522652  0.45283913     0.40200
N248        N  0.62582726  0.69418186  0.27023836    -0.37800
N249        N  0.64876900  0.77987587  0.32440635    -0.39400
N250        N  0.44387808  0.61603432  0.30222598    -0.37200
N251        N  0.46922873  0.69733699  0.36317393    -0.39600
N252        N  0.58740176  0.70244181  0.40698227    -0.39300
N253        N  0.61263805  0.77268079  0.47828977    -0.37000
N254        N  0.54349415  0.84880040  0.36957828    -0.38000
N255        N  0.53333838  0.78476730  0.29292014    -0.39700
C256        C  0.53297571  0.72979645  0.04446358    -0.04600
C257        C  0.54913689  0.73749336  0.07795388     0.09500
C258        C  0.57367428  0.77320767  0.08768986    -0.02000
C259        C  0.58247379  0.80108056  0.06385216    -0.00300
C260        C  0.56840220  0.79350923  0.02915040    -0.03900
C261        C  0.54345578  0.75724147  0.01972407     0.03100
C262        C  0.54162273  0.70762371  0.10204971     0.10000
C263        C  0.59074885  0.78118519  0.12200349     0.35900
C264        C  0.52117852  0.74106961  0.48280702     0.39300
C265        C  0.55459145  0.68665557  0.09385748    -0.04200
C266        C  0.54532335  0.65670999  0.11460568     0.02900
C267        C  0.52525965  0.64886864  0.14581965    -0.03800
C268        C  0.51302261  0.67080742  0.15426903    -0.00100
C269        C  0.52027203  0.69918347  0.13189118    -0.02600
C270        C  0.57707826  0.69561868  0.06337060     0.36600
C271        C  0.49278756  0.66461620  0.18585980     0.40200
C272        C  0.55457877  0.63299050  0.10177276     0.39400
C273        C  0.50490037  0.71924533  0.13900550     0.36300
C274        C  0.50587528  0.69319239  0.03517525     0.37000
C275        C  0.60625883  0.83749781  0.07537965     0.40200
N276        N  0.56165093  0.61425338  0.09030053    -0.37800
N277        N  0.59489662  0.70279108  0.03901949    -0.39400
N278        N  0.47659210  0.65983281  0.21097395    -0.37200
N279        N  0.49250115  0.73514690  0.14448973    -0.39600
N280        N  0.60436802  0.78741460  0.14937029    -0.39300
N281        N  0.62538234  0.86629721  0.08528723    -0.37000
N282        N  0.50787845  0.73220464  0.45533924    -0.38000
N283        N  0.48429221  0.66407636  0.02768392    -0.39700
C284        C  0.68793093  0.61087740  0.32010752    -0.04600
C285        C  0.69383124  0.62828924  0.35229319     0.09500
C286        C  0.66913987  0.63612832  0.36314803    -0.02000
C287        C  0.63800124  0.62514762  0.34289028    -0.00300
C288        C  0.63175187  0.60729004  0.31082015    -0.03900
C289        C  0.65772106  0.60133865  0.29901459     0.03100
C290        C  0.72375684  0.63494195  0.37657414     0.10000
C291        C  0.67563497  0.65532228  0.39546898     0.35900
C292        C  0.65280732  0.58391280  0.26577307     0.39300
C293        C  0.75953494  0.66367623  0.37131162    -0.04200
C294        C  0.78655012  0.67102011  0.39623498     0.02900
C295        C  0.77786477  0.65068342  0.42758917    -0.03800
C296        C  0.74238059  0.61954623  0.43068548    -0.00100
C297        C  0.71590392  0.61183595  0.40517299    -0.02600
C298        C  0.76841424  0.68607490  0.34051672     0.36600
C299        C  0.73145029  0.59574200  0.46063103     0.40200
C300        C  0.82340483  0.69956035  0.38952105     0.39400
C301        C  0.67994524  0.58007463  0.40855906     0.36300
C302        C  0.71217956  0.60127731  0.30950235     0.37000
C303        C  0.61286238  0.63307388  0.35472938     0.40200
N304        N  0.85285717  0.72226918  0.38421685    -0.37800
N305        N  0.77554592  0.70389348  0.31585944    -0.39400
N306        N  0.71732723  0.56470645  0.98144665    -0.37200
N307        N  0.65131795  0.55473553  0.41108144    -0.39600
N308        N  0.68059368  0.67076031  0.42113787    -0.39300
N309        N  0.59289791  0.63952111  0.36422717    -0.37000
N310        N  0.64898304  0.57009242  0.23924840    -0.38000
N311        N  0.73144321  0.59344202  0.30128654    -0.39700
C312        C  0.70441533  0.63495901  0.03412576    -0.04600
C313        C  0.69319694  0.61255576  0.06355253     0.09500
C314        C  0.71387691  0.60030074  0.07627098    -0.02000
C315        C  0.74664383  0.61134724  0.06033986    -0.00300
C316        C  0.75936065  0.63526951  0.03127540    -0.03900
C317        C  0.73698530  0.64622340  0.01788743     0.03100
C318        C  0.66154552  0.60499589  0.08363316     0.10000
C319        C  0.70165660  0.57696612  0.10677490     0.35900
C320        C  0.74675580  0.66950988  0.98761647     0.39300
C321        C  0.62772979  0.57303437  0.07879003    -0.04200
C322        C  0.59900094  0.56482104  0.10052856     0.02900
C323        C  0.60431512  0.58852540  0.12744064    -0.03800
C324        C  0.63727596  0.62220549  0.12946038    -0.00100
C325        C  0.66596427  0.62999125  0.10822798    -0.02600
C326        C  0.62297676  0.54821684  0.05219814     0.36600
C327        C  0.64176532  0.64919272  0.15315777     0.40200
C328        C  0.56439655  0.53175505  0.09562553     0.39400
C329        C  0.70061408  0.66324533  0.11262696     0.36300
C330        C  0.68258220  0.64726309  0.02125916     0.37000
C331        C  0.77946090  0.61753230  0.58014969     0.40200
N332        N  0.53644121  0.50573064  0.09180450    -0.37800
N333        N  0.61929502  0.52843516  0.03100045    -0.39400
N334        N  0.64530086  0.67072153  0.17197209    -0.37200
N335        N  0.72831971  0.68962697  0.11619115    -0.39600
N336        N  0.69177764  0.55843138  0.13110012    -0.39300
N337        N  0.79766534  0.61075132  0.59470588    -0.37000
N338        N  0.75396551  0.68841437  0.96383315    -0.38000
N339        N  0.66513370  0.65709119  0.01134513    -0.39700
C340        C  0.52512144  0.44080981  0.34514577    -0.04600
C341        C  0.48873394  0.41450497  0.35070669     0.09500
C342        C  0.46253463  0.41566826  0.33116300    -0.02000
C343        C  0.47259635  0.44396730  0.30741604    -0.00300
C344        C  0.50919374  0.47165152  0.30295614    -0.03900
C345        C  0.53544145  0.46905662  0.32134980     0.03100
C346        C  0.47796005  0.38720128  0.37925862     0.10000
C347        C  0.42502415  0.38801219  0.33617849     0.35900
C348        C  0.57331702  0.49592003  0.31737974     0.39300
C349        C  0.47411059  0.39507258  0.41367776    -0.04200
C350        C  0.46130247  0.36889775  0.44032409     0.02900
C351        C  0.45433662  0.33468045  0.43363985    -0.03800
C352        C  0.45670432  0.32663933  0.39828747    -0.00100
C353        C  0.46969383  0.35314925  0.37172458    -0.02600
C354        C  0.48257293  0.43022432  0.42142564     0.36600
C355        C  0.44141777  0.29060738  0.38708953     0.40200
C356        C  0.45130957  0.37643008  0.47327071     0.39400
C357        C  0.47378431  0.34519961  0.33611520     0.36300
C358        C  0.55201215  0.43933704  0.36503239     0.37000
C359        C  0.44504171  0.44419948  0.28745930     0.40200
N360        N  0.44289720  0.38298247  0.49893993    -0.37800
N361        N  0.48953563  0.45833958  0.42743552    -0.39400
N362        N  0.42868473  0.26279213  0.37487931    -0.37200
N363        N  0.47720359  0.33894366  0.30775736    -0.41100
N364        N  0.39509845  0.36591446  0.34015977    -0.39300
N365        N  0.42307541  0.44442086  0.27155976    -0.37000
N366        N  0.60370907  0.51684408  0.31461646    -0.38000
N367        N  0.57336166  0.43816129  0.38104361    -0.39700
C368        C  0.44199271  0.33302264  0.11071517    -0.04600
C369        C  0.46939140  0.36943850  0.10708690     0.09500
C370        C  0.49010453  0.38109901  0.07642761    -0.02000
C371        C  0.48162113  0.35747912  0.04837310    -0.00300
C372        C  0.45190131  0.32136430  0.05054526    -0.03900
C373        C  0.43360350  0.30910264  0.08287159     0.03100
C374        C  0.47544174  0.39613341  0.13439458     0.10000
C375        C  0.51964822  0.41806792  0.07307693     0.35900
C376        C  0.40551407  0.27178858  0.08729625     0.39300
C377        C  0.50535798  0.41143548  0.15721845    -0.04200
C378        C  0.51398209  0.44036749  0.17887487     0.02900
C379        C  0.49260270  0.45442065  0.17810286    -0.03800
C380        C  0.45958576  0.43509534  0.15936378    -0.00100
C381        C  0.45195692  0.40733306  0.13646720    -0.02600
C382        C  0.52755438  0.39758668  0.15799936     0.36600
C383        C  0.43243816  0.44220673  0.16451863     0.40200
C384        C  0.54428416  0.45473168  0.20282527     0.39400
C385        C  0.42041375  0.39105508  0.11399782     0.36300
C386        C  0.42169446  0.32042445  0.14284197     0.37000
C387        C  0.50818594  0.37912243  0.52063773     0.40200
N388        N  0.56828938  0.46601697  0.22212871    -0.37800
N389        N  0.54516373  0.38641791  0.15867336    -0.39400
N390        N  0.40986323  0.44652967  0.16917102    -0.37200
N391        N  0.39534801  0.37812637  0.09594710    -0.39600
N392        N  0.54353358  0.44733676  0.07005219    -0.39300
N393        N  0.52569572  0.39234096  0.49608264    -0.37000
N394        N  0.38307818  0.24200342  0.09080462    -0.38000
N395        N  0.40544220  0.31053984  0.16847514    -0.39700
C396        C  0.91951723  0.60342367  0.13459483    -0.04600
C397        C  0.93121162  0.61765545  0.10068844     0.09500
C398        C  0.96631343  0.62984606  0.09049242    -0.02000
C399        C  0.98895414  0.62607052  0.11351158    -0.00300
C400        C  0.97693576  0.61118312  0.14722666    -0.03900
C401        C  0.94228078  0.60051929  0.15788032     0.03100
C402        C  0.90468801  0.61579403  0.07497781     0.10000
C403        C  0.97885830  0.64594494  0.05619871     0.35900
C404        C  0.92809825  0.58247200  0.19125950     0.39300
C405        C  0.89220269  0.63781288  0.07867339    -0.04200
C406        C  0.86151329  0.63074106  0.05987272     0.02900
C407        C  0.84313857  0.60166178  0.03612756    -0.03800
C408        C  0.85908419  0.58231894  0.02983451    -0.00100
C409        C  0.88860382  0.58862771  0.04999390    -0.02600
C410        C  0.91052093  0.66723101  0.10309593     0.36600
C411        C  0.84606033  0.55565589  0.00268769     0.40200
C412        C  0.84921723  0.65331972  0.06710524     0.39400
C413        C  0.90170131  0.56599255  0.04604463     0.36300
C414        C  0.88310504  0.58977048  0.14486072     0.37000
C415        C  0.02453667  0.63758513  0.10260036     0.40200
N416        N  0.84149336  0.67251407  0.07562171    -0.37800
N417        N  0.92512121  0.69062654  0.12258484    -0.39400
N418        N  0.83621637  0.53393103  0.98159781    -0.37200
N419        N  0.91213762  0.54798843  0.04299781    -0.39600
N420        N  0.98881833  0.65886571  0.02882913    -0.39300
N421        N  0.05294585  0.64675740  0.09390549    -0.37000
N422        N  0.91615648  0.56750396  0.21745683    -0.38000
N423        N  0.85407240  0.57883882  0.15295551    -0.39700
C424        C  0.84309121  0.58850816  0.37936371    -0.04600
C425        C  0.87964418  0.61617548  0.38246166     0.09500
C426        C  0.89031434  0.64380456  0.40626230    -0.02000
C427        C  0.86576272  0.64131634  0.43046609    -0.00300
C428        C  0.82967148  0.61089378  0.43069254    -0.03900
C429        C  0.81800797  0.58655696  0.40265404     0.03100
C430        C  0.90749756  0.61576121  0.36206526     0.10000
C431        C  0.92720563  0.67439602  0.40648947     0.35900
C432        C  0.78019348  0.55975044  0.39745025     0.39300
C433        C  0.91340348  0.62623093  0.32659902    -0.04200
C434        C  0.93932817  0.62519854  0.30740162     0.02900
C435        C  0.96007749  0.61394518  0.32387232    -0.03800
C436        C  0.95678859  0.60772654  0.36061787    -0.00100
C437        C  0.92988289  0.60740081  0.37921968    -0.02600
C438        C  0.89283496  0.63837629  0.30999555     0.36600
C439        C  0.98176209  0.60279806  0.37989917     0.40200
C440        C  0.94431966  0.63620019  0.27090719     0.39400
C441        C  0.92518163  0.59826966  0.41624511     0.36300
C442        C  0.83145885  0.56144008  0.35293043     0.37000
C443        C  0.87895332  0.66997723  0.45541183     0.40200
N444        N  0.94831433  0.64572872  0.24201686    -0.37800
N445        N  0.87648841  0.64818448  0.29690421    -0.39400
N446        N  0.00182900  0.59918974  0.39539027    -0.37200
N447        N  0.92180746  0.59107033  0.44577609    -0.39600
N448        N  0.95660420  0.69870891  0.40655156    -0.39300
N449        N  0.89013730  0.69321403  0.47497171    -0.37000
N450        N  0.74998429  0.53847677  0.39327032    -0.38000
N451        N  0.82202918  0.53982189  0.33180641    -0.39700
C452        C  0.90411290  0.44769929  0.13403646    -0.04600
C453        C  0.90603843  0.41817081  0.14070889     0.09500
C454        C  0.93282039  0.42213734  0.16389333    -0.02000
C455        C  0.95727990  0.45536348  0.18024630    -0.00300
C456        C  0.95359490  0.48428706  0.17552352    -0.03900
C457        C  0.92732341  0.48015170  0.15127740     0.03100
C458        C  0.88086924  0.38452213  0.12064198     0.10000
C459        C  0.93523636  0.39209399  0.17088461     0.35900
C460        C  0.92552587  0.50986760  0.14084331     0.39300
C461        C  0.89280442  0.37711982  0.09016510    -0.04200
C462        C  0.86869991  0.35875400  0.06198248     0.02900
C463        C  0.83345854  0.35063241  0.06321581    -0.03800
C464        C  0.82021295  0.35175019  0.09624399    -0.00100
C465        C  0.84371640  0.36724529  0.12530281    -0.02600
C466        C  0.93043491  0.39123301  0.08650851     0.36600
C467        C  0.78324526  0.34027270  0.09954582     0.40200
C468        C  0.88122070  0.35065841  0.03126908     0.39400
C469        C  0.83058573  0.36975873  0.15877360     0.36300
C470        C  0.87872469  0.44523193  0.10816063     0.37000
C471        C  0.98724480  0.46007994  0.20021189     0.40200
N472        N  0.89168464  0.34415746  0.00710232    -0.37800
N473        N  0.96047619  0.40241995  0.08368794    -0.39400
N474        N  0.75390101  0.33164855  0.10216350    -0.37200
N475        N  0.82016148  0.37169756  0.18555614    -0.39600
N476        N  0.93724943  0.36814625  0.17647398    -0.39300
N477        N  0.01180540  0.46413006  0.21517349    -0.37000
N478        N  0.92257047  0.53210496  0.13040316    -0.38000
N479        N  0.85867620  0.44368537  0.08769081    -0.39700
C480        C  0.81475039  0.37544302  0.37804526    -0.04600
C481        C  0.85227559  0.39960845  0.37614865     0.09500
C482        C  0.87346263  0.40579361  0.40639431    -0.02000
C483        C  0.85734546  0.38941717  0.43855215    -0.00300
C484        C  0.81981869  0.36476045  0.44054687    -0.03900
C485        C  0.79862766  0.35880976  0.41035881     0.03100
C486        C  0.86992521  0.42331559  0.34475126     0.10000
C487        C  0.91195570  0.43154463  0.40512155     0.35900
C488        C  0.76013089  0.33779606  0.41403974     0.39300
C489        C  0.86897087  0.45366431  0.34019073    -0.04200
C490        C  0.89404482  0.48198440  0.31836083     0.02900
C491        C  0.92207792  0.48133171  0.30271115    -0.03800
C492        C  0.92120424  0.44969271  0.30555223    -0.00100
C493        C  0.89409259  0.42027849  0.32487885    -0.02600
C494        C  0.84358283  0.45678161  0.35982816     0.36600
C495        C  0.94919109  0.44760807  0.29055291     0.40200
C496        C  0.89194682  0.51258259  0.31431483     0.39400
C497        C  0.89182450  0.38716439  0.32535322     0.36300
C498        C  0.79288454  0.36884627  0.34709864     0.37000
C499        C  0.88654119  0.40838826  0.97392310     0.40200
N500        N  0.88959486  0.53656838  0.31102244    -0.37800
N501        N  0.82338088  0.45930260  0.37549938    -0.39400
N502        N  0.97169585  0.44540695  0.27989173    -0.37200
N503        N  0.89006148  0.36076626  0.32477017    -0.39600
N504        N  0.94258042  0.45209042  0.40398600    -0.39300
N505        N  0.90244079  0.42026662  0.99980998    -0.37000
N506        N  0.72975109  0.32133521  0.41938542    -0.38000
N507        N  0.77569847  0.36373306  0.32216413    -0.39700
C508        C  0.17957391  0.59715608  0.15498029    -0.04600
C509        C  0.16873151  0.57206526  0.12792367     0.09500
C510        C  0.13191018  0.54517382  0.12385343    -0.02000
C511        C  0.10608248  0.54664179  0.14284071    -0.00300
C512        C  0.11694528  0.57340171  0.16816040    -0.03900
C513        C  0.15382796  0.59625866  0.17642357     0.03100
C514        C  0.19496573  0.57744314  0.10029905     0.10000
C515        C  0.12065322  0.51697052  0.09882895     0.35900
C516        C  0.16556440  0.61909092  0.20675994     0.39300
C517        C  0.22355749  0.57376689  0.10782982    -0.04200
C518        C  0.25022894  0.58326194  0.08241716     0.02900
C519        C  0.24688131  0.59329662  0.04798524    -0.03800
C520        C  0.21780166  0.59678714  0.04075020    -0.00100
C521        C  0.19272941  0.58959018  0.06680152    -0.02600
C522        C  0.22616756  0.56133484  0.14222799     0.36600
C523        C  0.21468111  0.61077052  0.00747142     0.40200
C524        C  0.28286892  0.58661430  0.09326954     0.39400
C525        C  0.16565046  0.59693531  0.05976566     0.36300
C526        C  0.21700233  0.62573429  0.15899410     0.37000
C527        C  0.06833250  0.52057151  0.13625008     0.40200
N528        N  0.30904025  0.59009998  0.10317856    -0.37800
N529        N  0.22825881  0.55148065  0.16972959    -0.39400
N530        N  0.21947339  0.62797532  0.48007133    -0.37200
N531        N  0.14426022  0.60302007  0.05436846    -0.39600
N532        N  0.11176449  0.49440364  0.07895511    -0.39300
N533        N  0.03823858  0.49975589  0.13082471    -0.37000
N534        N  0.17506777  0.63633239  0.23173694    -0.38000
N535        N  0.24682006  0.64875597  0.16191589    -0.39700
C536        C  0.23071154  0.60161399  0.37499782    -0.04600
C537        C  0.19461391  0.57611720  0.38279333     0.09500
C538        C  0.18609104  0.55548874  0.41353258    -0.02000
C539        C  0.21313906  0.56258177  0.43815744    -0.00300
C540        C  0.24959591  0.59072051  0.43217215    -0.03900
C541        C  0.25804047  0.60889270  0.39928999     0.03100
C542        C  0.16557384  0.57444174  0.36108941     0.10000
C543        C  0.14884278  0.52829417  0.42082338     0.35900
C544        C  0.29450441  0.63678414  0.39045319     0.39300
C545        C  0.15565693  0.55814797  0.32779194    -0.04200
C546        C  0.13063812  0.55990585  0.30649619     0.02900
C547        C  0.11476796  0.57707933  0.31888018    -0.03800
C548        C  0.12206558  0.59012931  0.35344904    -0.00100
C549        C  0.14845429  0.59028269  0.37379565    -0.02600
C550        C  0.17129664  0.53974579  0.31553088     0.36600
C551        C  0.10193023  0.60275343  0.36876725     0.40200
C552        C  0.12081467  0.54365891  0.27215312     0.39400
C553        C  0.15858753  0.60792595  0.40745225     0.36300
C554        C  0.23953325  0.62203646  0.34265767     0.37000
C555        C  0.19962258  0.54497154  0.96460936     0.40200
N556        N  0.11272456  0.53040023  0.24486624    -0.37800
N557        N  0.18372948  0.52495588  0.30584122    -0.39400
N558        N  0.08617272  0.61261424  0.38206625    -0.37200
N559        N  0.16598940  0.62249667  0.43400457    -0.39600
N560        N  0.11913355  0.50680860  0.42671019    -0.39300
N561        N  0.18641354  0.52790235  0.98952701    -0.37000
N562        N  0.32296039  0.65956937  0.38203421    -0.38000
N563        N  0.24643187  0.63821845  0.31684510    -0.39700
C564        C  0.12837483  0.73898185  0.13823204    -0.04600
C565        C  0.16585558  0.75848869  0.13523249     0.09500
C566        C  0.18562130  0.75085248  0.15803784    -0.02000
C567        C  0.16779713  0.72144820  0.18122693    -0.00300
C568        C  0.12975341  0.69937018  0.18171241    -0.03900
C569        C  0.11068146  0.71084133  0.16262276     0.03100
C570        C  0.18432620  0.78713407  0.10800022     0.10000
C571        C  0.22441511  0.77356514  0.15763910     0.35900
C572        C  0.07387875  0.69704441  0.17091457     0.39300
C573        C  0.18780649  0.81968624  0.11213685    -0.04200
C574        C  0.19985832  0.84425003  0.08411371     0.02900
C575        C  0.20920887  0.83676773  0.05168339    -0.03800
C576        C  0.20996662  0.80590423  0.04945310    -0.00100
C577        C  0.19652993  0.78082071  0.07712834    -0.02600
C578        C  0.17756117  0.82719771  0.14492004     0.36600
C579        C  0.22286855  0.79839370  0.01853517     0.40200
C580        C  0.20192339  0.87700988  0.08867924     0.39400
C581        C  0.19331370  0.74738567  0.07310068     0.36300
C582        C  0.10786780  0.74778934  0.11604740     0.37000
C583        C  0.18914487  0.71561426  0.20544923     0.40200
N584        N  0.20336447  0.90302394  0.09242061    -0.37800
N585        N  0.16925522  0.83305762  0.17106202    -0.39400
N586        N  0.21354815  0.78906806  0.48041100    -0.37200
N587        N  0.19055764  0.72065461  0.06988454    -0.39600
N588        N  0.25533264  0.79186981  0.15734303    -0.39300
N589        N  0.20701249  0.71240193  0.22508283    -0.37000
N590        N  0.04507110  0.68793939  0.17785797    -0.38000
N591        N  0.09148005  0.75477459  0.09838712    -0.39700
C592        C  0.14670618  0.72985251  0.35659459    -0.04600
C593        C  0.13260009  0.75062920  0.35985368     0.09500
C594        C  0.10049548  0.74019793  0.34200445    -0.02000
C595        C  0.08214125  0.70870804  0.32188495    -0.00300
C596        C  0.09515496  0.68676291  0.32022451    -0.03900
C597        C  0.12867173  0.69870698  0.33609363     0.03100
C598        C  0.14986147  0.78149783  0.38470190     0.10000
C599        C  0.08588216  0.76146656  0.34518315     0.35900
C600        C  0.14648244  0.68102979  0.32905578     0.39300
C601        C  0.17364228  0.81688891  0.37295926    -0.04200
C602        C  0.19063055  0.84523078  0.39733854     0.02900
C603        C  0.18581854  0.83813711  0.43368426    -0.03800
C604        C  0.15810179  0.80316254  0.44462693    -0.00100
C605        C  0.14116125  0.77504664  0.42043034    -0.02600
C606        C  0.18059383  0.82405792  0.33584148     0.36600
C607        C  0.14393421  0.79607821  0.47987266     0.40200
C608        C  0.21048104  0.88170169  0.38500751     0.39400
C609        C  0.11377929  0.73932782  0.43215508     0.36300
C610        C  0.17956787  0.74016640  0.37498627     0.37000
C611        C  0.05047110  0.69962538  0.30209140     0.40200
N612        N  0.22590228  0.91084487  0.37518718    -0.37800
N613        N  0.18624163  0.82973990  0.30618885    -0.39400
N614        N  0.14649224  0.77500395  0.99810931    -0.37200
N615        N  0.09183033  0.71091083  0.44142606    -0.39600
N616        N  0.07425000  0.77845970  0.34786225    -0.39300
N617        N  0.02571607  0.69331347  0.28582781    -0.37000
N618        N  0.16219371  0.66845615  0.32330910    -0.38000
N619        N  0.20556658  0.74799472  0.38984512    -0.39700
C620        C  0.69419808  0.22563091  0.16072657    -0.04600
C621        C  0.69874670  0.21215151  0.12981319     0.09500
C622        C  0.67357764  0.17638756  0.12071328    -0.02000
C623        C  0.64306500  0.15462261  0.14149021    -0.00300
C624        C  0.63671353  0.16864292  0.17106096    -0.03900
C625        C  0.66344989  0.20408193  0.18139021     0.03100
C626        C  0.72840976  0.23602428  0.10510924     0.10000
C627        C  0.67884907  0.16219255  0.08937677     0.35900
C628        C  0.65846483  0.21974218  0.21167070     0.39300
C629        C  0.76255127  0.24226019  0.10942103    -0.04200
C630        C  0.78842100  0.26008340  0.08294645     0.02900
C631        C  0.78003502  0.27109871  0.05150136    -0.03800
C632        C  0.74687280  0.26811634  0.04921552    -0.00100
C633        C  0.72133561  0.25055654  0.07590322    -0.02600
C634        C  0.77060595  0.22940017  0.14072329     0.36600
C635        C  0.73751517  0.28142903  0.01915796     0.40200
C636        C  0.82382595  0.26731679  0.08821681     0.39400
C637        C  0.68715312  0.24666539  0.07301046     0.36300
C638        C  0.72056690  0.26222463  0.17045120     0.37000
C639        C  0.61930818  0.11737316  0.13311504     0.40200
N640        N  0.85214700  0.27326362  0.09245147    -0.37800
N641        N  0.77696184  0.21916829  0.16579925    -0.39400
N642        N  0.72918355  0.29167082  0.99553684    -0.37200
N643        N  0.66001125  0.24373714  0.07067518    -0.39600
N644        N  0.68307211  0.15099889  0.06431032    -0.39300
N645        N  0.60138963  0.08758589  0.12611573    -0.37000
N646        N  0.65484042  0.23282887  0.23552006    -0.38000
N647        N  0.74162263  0.29138469  0.17825712    -0.39700
C648        C  0.72274636  0.24237501  0.40970256    -0.04600
C649        C  0.73690252  0.25475452  0.37594947     0.09500
C650        C  0.77432277  0.27814458  0.37201094    -0.02000
C651        C  0.79723515  0.28972158  0.40190889    -0.00300
C652        C  0.78284333  0.27855381  0.43586403    -0.03900
C653        C  0.74565026  0.25234723  0.43900438     0.03100
C654        C  0.71194191  0.23771336  0.34522329     0.10000
C655        C  0.78911841  0.28953069  0.33724571     0.35900
C656        C  0.73139796  0.23071905  0.47049371     0.39300
C657        C  0.68687086  0.24615348  0.33743180    -0.04200
C658        C  0.65393205  0.22093386  0.32125183     0.02900
C659        C  0.64713972  0.18814719  0.30956863    -0.03800
C660        C  0.67505131  0.18255513  0.31215045    -0.00100
C661        C  0.70683963  0.20674726  0.33078990    -0.02600
C662        C  0.69433199  0.28050501  0.34657488     0.36600
C663        C  0.67122395  0.15188009  0.29596436     0.40200
C664        C  0.62651225  0.22831149  0.31906103     0.39400
C665        C  0.73358529  0.19889179  0.33672643     0.36300
C666        C  0.68441288  0.21726332  0.41406774     0.37000
C667        C  0.83569473  0.31126541  0.39789203     0.40200
N668        N  0.60488465  0.23450660  0.31768534    -0.37800
N669        N  0.69892760  0.30774315  0.35212203    -0.39400
N670        N  0.66823680  0.12749530  0.28292479    -0.37200
N671        N  0.75497561  0.19268914  0.34142146    -0.39600
N672        N  0.80082938  0.29852518  0.30940748    -0.39300
N673        N  0.86650446  0.32810500  0.39548132    -0.37000
N674        N  0.72585275  0.20916189  0.99416565    -0.38000
N675        N  0.65389048  0.19738420  0.41747696    -0.39700
C676        C  0.52645893  0.28997301  0.10770661    -0.04600
C677        C  0.50674096  0.25253841  0.10956884     0.09500
C678        C  0.48175225  0.23248199  0.08281347    -0.02000
C679        C  0.47826384  0.24945096  0.05322100    -0.00300
C680        C  0.50103514  0.28701722  0.04907964    -0.03900
C681        C  0.52393498  0.30715489  0.07758970     0.03100
C682        C  0.51575382  0.23396665  0.13647029     0.10000
C683        C  0.46115092  0.19391056  0.08463582     0.35900
C684        C  0.54573442  0.34564421  0.07588129     0.39300
C685        C  0.49118044  0.21191886  0.16272603    -0.04200
C686        C  0.49730958  0.18969576  0.18365108     0.02900
C687        C  0.52903955  0.19076143  0.17979695    -0.03800
C688        C  0.55416704  0.21395400  0.15442788    -0.00100
C689        C  0.54731332  0.23490924  0.13259569    -0.02600
C690        C  0.45937113  0.21184441  0.16778547     0.36600
C691        C  0.58626608  0.21482498  0.14874246     0.40200
C692        C  0.47101220  0.16586439  0.20919399     0.39400
C693        C  0.57204144  0.25620790  0.10474724     0.36300
C694        C  0.55056855  0.31077333  0.13626888     0.37000
C695        C  0.44271339  0.23548033  0.53485150     0.40200
N696        N  0.44998607  0.14685692  0.22957968    -0.37800
N697        N  0.43403783  0.21190948  0.17177153    -0.39400
N698        N  0.61210846  0.21633132  0.14282244    -0.37200
N699        N  0.59162630  0.27310556  0.08247372    -0.39600
N700        N  0.44484830  0.16321289  0.08614268    -0.39300
N701        N  0.41590250  0.22001375  0.51953030    -0.37000
N702        N  0.56350605  0.37636946  0.07463122    -0.38000
N703        N  0.56985521  0.32736615  0.15904248    -0.39700
C704        C  0.48562971  0.15979518  0.38240116    -0.04600
C705        C  0.49257555  0.19304133  0.37224811     0.09500
C706        C  0.50386689  0.20540152  0.33781948    -0.02000
C707        C  0.51073499  0.18605281  0.31438210    -0.00300
C708        C  0.50529513  0.15316553  0.32472161    -0.03900
C709        C  0.49168089  0.13986834  0.35885615     0.03100
C710        C  0.49355292  0.21768762  0.39900236     0.10000
C711        C  0.51075004  0.23957768  0.32734406     0.35900
C712        C  0.48518747  0.10629804  0.37078939     0.39300
C713        C  0.52623699  0.24307750  0.41516887    -0.04200
C714        C  0.52840890  0.26776475  0.43895209     0.02900
C715        C  0.49835492  0.27019403  0.44431299    -0.03800
C716        C  0.46465487  0.24120129  0.43161659    -0.00100
C717        C  0.46252758  0.21578485  0.40848653    -0.02600
C718        C  0.55797339  0.24362713  0.40732271     0.36600
C719        C  0.43144649  0.23579484  0.44259018     0.40200
C720        C  0.56078576  0.28733827  0.46023543     0.39400
C721        C  0.42832275  0.18768149  0.39396812     0.36300
C722        C  0.47399284  0.14698980  0.41787552     0.37000
C723        C  0.52753663  0.20302335  0.28156538     0.40200
N724        N  0.57069192  0.28226857  0.98600107    -0.37800
N725        N  0.58322468  0.24411209  0.40092468    -0.39400
N726        N  0.40353687  0.22945536  0.44941789    -0.37200
N727        N  0.40105951  0.16521316  0.38238660    -0.39600
N728        N  0.51635026  0.26688921  0.31919138    -0.39300
N729        N  0.54173093  0.21930010  0.25657517    -0.37000
N730        N  0.48012077  0.07983116  0.38128628    -0.38000
N731        N  0.46479431  0.13689316  0.44621749    -0.39700
C732        C  0.31970569  0.89302108  0.11095557    -0.04600
C733        C  0.32386946  0.92579948  0.11667711     0.09500
C734        C  0.30436852  0.93499780  0.09520975    -0.02000
C735        C  0.28830724  0.91650031  0.06360101    -0.00300
C736        C  0.28880262  0.88643208  0.05513043    -0.03900
C737        C  0.30024616  0.87241641  0.08149614     0.03100
C738        C  0.35311193  0.95295073  0.14072901     0.10000
C739        C  0.30330211  0.96525377  0.10447323     0.35900
C740        C  0.29466568  0.83797175  0.07683729     0.39300
C741        C  0.38283815  0.98450241  0.12628640    -0.04200
C742        C  0.41230093  0.00848883  0.14764701     0.02900
C743        C  0.41438158  0.99941566  0.18279971    -0.03800
C744        C  0.38408058  0.96874155  0.19774930    -0.00100
C745        C  0.35303380  0.94646915  0.17711068    -0.02600
C746        C  0.38429315  0.99155237  0.08888874     0.36600
C747        C  0.38472768  0.95999452  0.23434483     0.40200
C748        C  0.44081714  0.04211442  0.13285596     0.39400
C749        C  0.32123154  0.91652666  0.19312315     0.36300
C750        C  0.33813012  0.88189895  0.13331533     0.37000
C751        C  0.27333331  0.93007029  0.03969214     0.40200
N752        N  0.46300573  0.06929616  0.12121700    -0.37800
N753        N  0.38568895  0.99730469  0.05909941    -0.39400
N754        N  0.38529689  0.95275825  0.26345221    -0.37200
N755        N  0.29584310  0.89259740  0.20585467    -0.39600
N756        N  0.30243990  0.98936167  0.11194077    -0.39300
N757        N  0.26133028  0.94144900  0.02130735    -0.37000
N758        N  0.29026065  0.81052643  0.07321221    -0.38000
N759        N  0.35282625  0.87297444  0.15108252    -0.39700
C760        C  0.30574277  0.91869035  0.35873852    -0.04600
C761        C  0.32924212  0.95462911  0.36800321     0.09500
C762        C  0.32752376  0.96527564  0.40180929    -0.02000
C763        C  0.31031880  0.93954632  0.42856236    -0.00300
C764        C  0.28748069  0.90277498  0.42031887    -0.03900
C765        C  0.28511713  0.89279252  0.38474500     0.03100
C766        C  0.36403129  0.97726301  0.34906060     0.10000
C767        C  0.34935457  0.00286643  0.41031023     0.35900
C768        C  0.26571007  0.85554317  0.37565422     0.39300
C769        C  0.36886098  0.00075548  0.32179585    -0.04200
C770        C  0.40287004  0.02312267  0.30611221     0.02900
C771        C  0.43266271  0.02267622  0.31818796    -0.03800
C772        C  0.42743531  0.99923740  0.34614071    -0.00100
C773        C  0.39342551  0.97656011  0.36100706    -0.02600
C774        C  0.33883595  0.00201346  0.31017712     0.36600
C775        C  0.45659910  0.99751690  0.35995688     0.40200
C776        C  0.40697093  0.04672330  0.27777608     0.39400
C777        C  0.38867326  0.95236505  0.38918807     0.36300
C778        C  0.30503335  0.90823294  0.32288669     0.37000
C779        C  0.32597797  0.95076491  0.46319142     0.40200
N780        N  0.41009645  0.06533854  0.25498239    -0.37800
N781        N  0.31483050  0.00302106  0.30099249    -0.39400
N782        N  0.47929483  0.99576955  0.37196003    -0.37200
N783        N  0.38495193  0.93320819  0.41166806    -0.39600
N784        N  0.36673952  0.03281352  0.41698351    -0.39300
N785        N  0.33450941  0.96798991  0.99380447    -0.37000
N786        N  0.25083223  0.82591481  0.36815342    -0.38000
N787        N  0.30421012  0.89994636  0.29417117    -0.39700
C788        C  0.54547074  0.96393353  0.14334197    -0.04600
C789        C  0.53671135  0.96419244  0.10757481     0.09500
C790        C  0.52996930  0.98948750  0.09596015    -0.02000
C791        C  0.52963382  0.01273414  0.11988007    -0.00300
C792        C  0.53731464  0.01208316  0.15637162    -0.03900
C793        C  0.54678197  0.98830613  0.16733225     0.03100
C794        C  0.53390631  0.93771094  0.08177972     0.10000
C795        C  0.52293703  0.99135168  0.05891841     0.35900
C796        C  0.55932601  0.98962162  0.20288894     0.39300
C797        C  0.50030932  0.91131141  0.06725647    -0.04200
C798        C  0.49758919  0.88754740  0.04179853     0.02900
C799        C  0.52825639  0.88864484  0.03142170    -0.03800
C800        C  0.56179051  0.91483402  0.04644088    -0.00100
C801        C  0.56473064  0.93991273  0.07044049    -0.02600
C802        C  0.46822521  0.90824258  0.07896444     0.36600
C803        C  0.59289299  0.91410765  0.04015729     0.40200
C804        C  0.46270727  0.86140012  0.02700735     0.39400
C805        C  0.59959184  0.96797358  0.08374389     0.36300
C806        C  0.55248385  0.93800902  0.15566457     0.37000
C807        C  0.52172127  0.03749089  0.10573232     0.40200
N808        N  0.43402182  0.84462526  0.50852300    -0.37800
N809        N  0.44267688  0.90589340  0.08819994    -0.39400
N810        N  0.61804164  0.91372954  0.03632664    -0.37200
N811        N  0.62735530  0.99043880  0.09439462    -0.39600
N812        N  0.51711435  0.99264238  0.02946869    -0.39300
N813        N  0.51609033  0.05741126  0.09357001    -0.37000
N814        N  0.56994667  0.99096940  0.23106515    -0.38000
N815        N  0.55809202  0.91732213  0.16550138    -0.39700
C816        C  0.57042792  0.92646565  0.40590796    -0.04600
C817        C  0.53777895  0.92097284  0.39383356     0.09500
C818        C  0.50549383  0.89174778  0.40754807    -0.02000
C819        C  0.50593051  0.86836317  0.43217023    -0.00300
C820        C  0.53858257  0.87617342  0.44723479    -0.03900
C821        C  0.57090234  0.90531716  0.43350554     0.03100
C822        C  0.53744562  0.94674338  0.36806313     0.10000
C823        C  0.47165240  0.88639779  0.39748673     0.35900
C824        C  0.60487127  0.91394183  0.44732862     0.39300
C825        C  0.52107994  0.93561606  0.33447545    -0.04200
C826        C  0.51856260  0.95927630  0.31171910     0.02900
C827        C  0.53489870  0.99540034  0.32090170    -0.03800
C828        C  0.55263441  0.00677072  0.35410116    -0.00100
C829        C  0.55261963  0.98240320  0.37778679    -0.02600
C830        C  0.50702865  0.89971336  0.32313412     0.36600
C831        C  0.56961170  0.04333577  0.36515759     0.40200
C832        C  0.49930530  0.94623344  0.27869898     0.39400
C833        C  0.56722090  0.99385946  0.41294547     0.36300
C834        C  0.60369531  0.95395893  0.38976846     0.37000
C835        C  0.47767158  0.84073400  0.94504691     0.40200
N836        N  0.48369070  0.93564227  0.25246592    -0.37800
N837        N  0.49579502  0.87102370  0.31419362    -0.39400
N838        N  0.58337247  0.07248716  0.37405485    -0.37200
N839        N  0.57878283  0.00287792  0.44099819    -0.39600
N840        N  0.44463898  0.88218638  0.38963461    -0.39300
N841        N  0.45069355  0.81456415  0.95160279    -0.37000
N842        N  0.63289170  0.92222135  0.45727323    -0.38000
N843        N  0.63022849  0.97581215  0.37679725    -0.39700
N844        N  0.54256565  0.86032366  0.98208092    -0.02600
C845        C  0.52081220  0.85607426  0.50716749     0.00000
C846        C  0.49839947  0.82223070  0.52014767    -0.22900
C847        C  0.50249339  0.80061000  0.49931945    -0.23100
C848        C  0.53501619  0.82663746  0.97817291    -0.00100
H849        H  0.48234311  0.81438329  0.54352096     0.13600
H850        H  0.49132042  0.77304990  0.50528986     0.13700
N851        N  0.26792291  0.87483569  0.98982497    -0.02600
C852        C  0.28292346  0.87212248  0.50532248     0.00000
C853        C  0.30577185  0.86535232  0.48932043    -0.22900
C854        C  0.31453293  0.87485321  0.96996701    -0.23100
C855        C  0.28631958  0.87732410  0.96055461    -0.00100
H856        H  0.32719916  0.86472367  0.50165451     0.13600
H857        H  0.33568010  0.87934932  0.95303536     0.13700
O858        O  0.55888881  0.04965848  0.79213298    -0.79300
O859        O  0.56960867  0.12433342  0.67274993    -0.79300
O860        O  0.53248353  0.02621642  0.71090939    -0.79300
O861        O  0.58568753  0.16210091  0.78053176    -0.79300
O862        O  0.52818909  0.05427007  0.66791441    -0.79400
O863        O  0.59675631  0.12259573  0.79596722    -0.79300
O864        O  0.59635837  0.14601404  0.72177656    -0.79300
O865        O  0.50559609  0.00605941  0.77553356    -0.79300
C866        C  0.53443623  0.01690611  0.79290466     1.10400
C867        C  0.59837992  0.14392534  0.68973282     1.10300
C868        C  0.53501446  0.03251137  0.67850311     1.10400
C869        C  0.60658496  0.15471756  0.79436415     1.10300
O870        O  0.53204521  0.11682683  0.81654870    -0.79300
O871        O  0.46655194  0.04648612  0.69780357    -0.79400
O872        O  0.46683138  0.04039091  0.76547849    -0.79300
O873        O  0.55643068  0.17413070  0.72041391    -0.79300
O874        O  0.50877573  0.12529924  0.69872409    -0.79300
O875        O  0.49482523  0.04448536  0.81393996    -0.79300
O876        O  0.50942126  0.12467666  0.76892110    -0.79300
O877        O  0.46050083  0.99605232  0.71543808    -0.79300
Co878      Co  0.54541953  0.08352406  0.80058999     1.51500
Co879      Co  0.52042150  0.08744233  0.69213568     1.51700
Co880      Co  0.50080316  0.03562909  0.73758023     1.51600
Co881      Co  0.55124427  0.13316077  0.74197016     1.51500
O882        O  0.53882374  0.08491463  0.74663060    -1.41200
C883        C  0.51311815  0.12639929  0.80203237     1.10300
C884        C  0.44926864  0.01189754  0.69738010     1.10400
C885        C  0.46579670  0.03424279  0.79782344     1.10400
C886        C  0.52965978  0.15963425  0.69965283     1.10300
N887        N  0.47811109  0.29045937  0.98904877    -0.02600
C888        C  0.49514248  0.29213570  0.95911926     0.00000
C889        C  0.53037990  0.32102421  0.96235506    -0.22900
C890        C  0.53695478  0.32662740  0.99780520    -0.23100
C891        C  0.50436013  0.30450043  0.01394747    -0.00100
H892        H  0.55120321  0.32897505  0.94339753     0.13600
H893        H  0.56613962  0.34619157  0.51899999     0.13700
N894        N  0.80571721  0.30223077  0.99330511    -0.02600
C895        C  0.80959331  0.28896790  0.96307349     0.00000
C896        C  0.81815286  0.26488778  0.97225282    -0.22900
C897        C  0.80862065  0.25779137  0.51262560    -0.23100
C898        C  0.79983789  0.28065134  0.52424162    -0.00100
H899        H  0.81893068  0.24701856  0.95441640     0.13600
H900        H  0.80574640  0.23561133  0.52698356     0.13700
O901        O  0.07020030  0.63150445  0.80969342    -0.79300
O902        O  0.01620879  0.59618573  0.66127407    -0.79300
O903        O  0.13027028  0.66158342  0.71680370    -0.79300
O904        O  0.99155750  0.61562417  0.77063492    -0.79300
O905        O  0.08231117  0.64524529  0.68550655    -0.79400
O906        O  0.99680358  0.58672484  0.81323503    -0.79300
O907        O  0.00616055  0.62238779  0.70169113    -0.79300
O908        O  0.08209885  0.66126838  0.75954913    -0.79300
C909        C  0.08326592  0.66090831  0.79275014     1.10400
C910        C  0.00420147  0.61451863  0.67001016     1.10300
C911        C  0.11582214  0.66830328  0.69235669     1.10400
C912        C  0.98390399  0.60347853  0.80136054     1.10300
O913        O  0.99619311  0.52911858  0.78624963    -0.79300
O914        O  0.07245840  0.58553554  0.65656517    -0.79400
O915        O  0.11184263  0.62240372  0.77493456    -0.79300
O916        O  0.96909630  0.54474182  0.69723656    -0.79300
O917        O  0.01364958  0.53775278  0.69551440    -0.79300
O918        O  0.06965989  0.56814658  0.78708753    -0.79300
O919        O  0.95652515  0.53942759  0.76646587    -0.79300
O920        O  0.09402398  0.59010173  0.71007263    -0.79300
Co921      Co  0.03381339  0.57946666  0.79558716     1.51500
Co922      Co  0.04825447  0.59011967  0.69452439     1.51700
Co923      Co  0.08492259  0.62533315  0.73446600     1.51600
Co924      Co  0.98401645  0.58197085  0.73427113     1.51500
O925        O  0.03259544  0.59103325  0.74389363    -1.41200
C926        C  0.96386170  0.51916800  0.78207476     1.10300
C927        C  0.09392740  0.58367237  0.67709870     1.10400
C928        C  0.10202419  0.59326597  0.78931244     1.10400
C929        C  0.98112818  0.52615088  0.68931484     1.10300
N930        N  0.27417127  0.58664707  0.49122960    -0.02600
C931        C  0.28135813  0.60815270  0.51935342     0.00000
C932        C  0.29850895  0.64277727  0.50707901    -0.22900
C933        C  0.29100470  0.64208985  0.97550950    -0.23100
C934        C  0.27482507  0.60761140  0.96370287    -0.00100
H935        H  0.30414094  0.66528720  0.52237259     0.13600
H936        H  0.29456827  0.66441070  0.96085811     0.13700
N937        N  0.80799665  0.33573870  0.50075644    -0.02600
C938        C  0.80911019  0.35071369  0.53193114     0.00000
C939        C  0.80058175  0.37532610  0.52647507    -0.22900
C940        C  0.80348251  0.37961084  0.99059412    -0.23100
C941        C  0.81008469  0.35706181  0.97394576    -0.00100
H942        H  0.80228050  0.39365241  0.54550241     0.13600
H943        H  0.80273954  0.40087482  0.97839099     0.13700
N944        N  0.80964523  0.60929099  0.98806281    -0.02600
C945        C  0.81671591  0.60923004  0.51760395     0.00000
C946        C  0.79198419  0.57308936  0.51278188    -0.22900
C947        C  0.78038346  0.55206532  0.97522052    -0.23100
C948        C  0.80060066  0.58621778  0.96163547    -0.00100
H949        H  0.78793042  0.55242424  0.53066891     0.13600
H950        H  0.77159477  0.52771803  0.96160371     0.13700
N951        N  0.23103137  0.86267084  0.99023000    -0.02600
C952        C  0.21294574  0.86461512  0.51673559     0.00000
C953        C  0.18850204  0.87364522  0.51225350    -0.22900
C954        C  0.18589640  0.86756317  0.97514406    -0.23100
C955        C  0.21217115  0.86388775  0.96237819    -0.00100
H956        H  0.17027503  0.87160235  0.53172281     0.13600
H957        H  0.16424397  0.86527402  0.95986255     0.13700
O958        O  0.49062816  0.50359840  0.70429803    -0.79300
O959        O  0.50054031  0.56668764  0.82701550    -0.79300
O960        O  0.55238745  0.52610774  0.77598363    -0.79300
O961        O  0.45247978  0.53013641  0.70596119    -0.79300
O962        O  0.50132336  0.51903142  0.78537324    -0.79400
O963        O  0.47475474  0.53601507  0.65321433    -0.79300
O964        O  0.46235853  0.54419505  0.78242540    -0.79300
O965        O  0.54429494  0.51559212  0.70564022    -0.79300
C966        C  0.51113251  0.49320248  0.70041526     1.10400
C967        C  0.46892229  0.55332132  0.81522407     1.10300
C968        C  0.52140114  0.50805076  0.78907439     1.10400
C969        C  0.44862448  0.52933244  0.67214954     1.10300
O970        O  0.53182804  0.60224100  0.67004607    -0.79300
O971        O  0.56908187  0.58097922  0.81018808    -0.79400
O972        O  0.59193533  0.59109912  0.69428329    -0.79300
O973        O  0.50310210  0.61846155  0.76431360    -0.79300
O974        O  0.54958660  0.62371048  0.78769889    -0.79300
O975        O  0.54771069  0.55698925  0.65849538    -0.79300
O976        O  0.49276341  0.60608273  0.69609285    -0.79300
O977        O  0.60113925  0.60250199  0.76331989    -0.79300
Co978      Co  0.51015446  0.55378929  0.68952462     1.51500
Co979      Co  0.52438767  0.57129326  0.78469122     1.51700
Co980      Co  0.56989980  0.56009308  0.73487298     1.51600
Co981      Co  0.48346994  0.57409235  0.73700628     1.51500
O982        O  0.53316028  0.57396334  0.73461631    -1.41200
C983        C  0.51569626  0.61722328  0.67250008     1.10300
C984        C  0.59972531  0.59814192  0.79591853     1.10400
C985        C  0.58109880  0.57906224  0.66392951     1.10400
C986        C  0.53152666  0.63653800  0.78184109     1.10300
N987        N  0.45458168  0.30223510  0.98901204    -0.02600
C988        C  0.44047862  0.30675347  0.52025549     0.00000
C989        C  0.40126250  0.28725195  0.00773518    -0.22900
C990        C  0.40065596  0.28804263  0.97169644    -0.23100
C991        C  0.43499829  0.30106623  0.96049253    -0.00100
H992        H  0.38712809  0.29664422  0.52661075     0.13600
H993        H  0.38010937  0.28775250  0.95628025     0.13700
N994        N  0.27777993  0.55962672  0.98991637    -0.02600
C995        C  0.27279461  0.54189179  0.95946173     0.00000
C996        C  0.24187538  0.50826291  0.96323920    -0.22900
C997        C  0.24391609  0.50381095  0.50320367    -0.23100
C998        C  0.26970909  0.53650822  0.51747299    -0.00100
H999        H  0.23132938  0.48707621  0.94427350     0.13600
H1000       H  0.23044400  0.47827467  0.51632402     0.13700
N1001       N  0.79523974  0.63026121  0.98626377    -0.02600
C1002       C  0.79758315  0.66173358  0.51524377     0.00000
C1003       C  0.81616398  0.68417138  0.00559932    -0.22900
C1004       C  0.82055464  0.68629986  0.96979569    -0.23100
C1005       C  0.80299844  0.65163977  0.95799394    -0.00100
H1006       H  0.81554747  0.71739935  0.52168589     0.13600
H1007       H  0.82721059  0.70939364  0.95441605     0.13700
N1008       N  0.56307934  0.82046469  0.97312437    -0.02600
C1009       C  0.58648984  0.83369341  0.94599605     0.00000
C1010       C  0.62094202  0.85345227  0.95996327    -0.22900
C1011       C  0.61838273  0.84558568  0.99518533    -0.23100
C1012       C  0.57548096  0.81673936  0.49995584    -0.00100
H1013       H  0.64524543  0.86415479  0.94520536     0.13600
H1014       H  0.63325535  0.84350433  0.51031940     0.13700
C1015       C  0.33503720  0.51640876  0.92145489    -0.04600
C1016       C  0.35727615  0.54568804  0.89957267     0.09500
C1017       C  0.35476918  0.57518682  0.90034342    -0.02000
C1018       C  0.33043921  0.57551061  0.92298555    -0.00300
C1019       C  0.30417294  0.54436339  0.94126352    -0.03900
C1020       C  0.30868580  0.51543047  0.94202199     0.03100
C1021       C  0.38573165  0.54673558  0.87841599     0.10000
C1022       C  0.37818234  0.60592986  0.87844828     0.35900
C1023       C  0.28898962  0.48563122  0.96606823     0.39300
C1024       C  0.37657340  0.52628095  0.84777972    -0.04200
C1025       C  0.40313692  0.52640509  0.82845101     0.02900
C1026       C  0.43980634  0.54829333  0.83877977    -0.03800
C1027       C  0.44862203  0.56844672  0.87013804    -0.00100
C1028       C  0.42171764  0.56731751  0.88978789    -0.02600
C1029       C  0.33962971  0.50559928  0.83571865     0.36600
C1030       C  0.48547278  0.59195311  0.88191078     0.40200
C1031       C  0.39209985  0.50349398  0.79812818     0.39400
C1032       C  0.43116690  0.58799618  0.92166030     0.36300
C1033       C  0.34010158  0.48751448  0.92349544     0.37000
C1034       C  0.33828355  0.60978808  0.93219737     0.40200
N1035       N  0.38307769  0.48513894  0.77397846    -0.37800
N1036       N  0.31016652  0.48925095  0.82609888    -0.39400
N1037       N  0.51474652  0.61089639  0.89152357    -0.37200
N1038       N  0.43866245  0.60463072  0.94693275    -0.39600
N1039       N  0.39669436  0.63045141  0.86096475    -0.39300
N1040       N  0.34887707  0.63857887  0.94008459    -0.37000
N1041       N  0.27380400  0.46155517  0.98497747    -0.38000
N1042       N  0.34432226  0.46463244  0.92516483    -0.39700
C1043       C  0.29948682  0.50883132  0.59899584    -0.04600
C1044       C  0.33675417  0.52810578  0.59411516     0.09500
C1045       C  0.35256827  0.55457169  0.56795664    -0.02000
C1046       C  0.33120219  0.56027391  0.54527562    -0.00300
C1047       C  0.29317883  0.53794558  0.54713131    -0.03900
C1048       C  0.27785704  0.51412273  0.57602290     0.03100
C1049       C  0.36025266  0.52222056  0.61726494     0.10000
C1050       C  0.39124389  0.57611696  0.56451131     0.35900
C1051       C  0.24016553  0.49670379  0.58344454     0.39300
C1052       C  0.37513309  0.50439574  0.60409512    -0.04200
C1053       C  0.40282563  0.50502612  0.62272225     0.02900
C1054       C  0.41501261  0.52242004  0.65550499    -0.03800
C1055       C  0.39763911  0.53751934  0.67002534    -0.00100
C1056       C  0.37126010  0.53837441  0.65044623    -0.02600
C1057       C  0.36297854  0.48678507  0.57043192     0.36600
C1058       C  0.40806119  0.55417990  0.70422965     0.40200
C1059       C  0.41904816  0.48820138  0.60762422     0.39400
C1060       C  0.35721170  0.55810965  0.66332764     0.36300
C1061       C  0.28342384  0.48322371  0.62742152     0.37000
C1062       C  0.34233999  0.58964805  0.02346429     0.40200
N1063       N  0.43200820  0.47488309  0.59538838    -0.37800
N1064       N  0.35329779  0.47279069  0.54355926    -0.39400
N1065       N  0.41596978  0.56733179  0.73157625    -0.37200
N1066       N  0.34626029  0.57413095  0.67341075    -0.39600
N1067       N  0.42204299  0.59297987  0.56191348    -0.39300
N1068       N  0.35784569  0.61700971  0.00952425    -0.37000
N1069       N  0.21016333  0.48314583  0.58954068    -0.38000
N1070       N  0.27070521  0.46282770  0.65017630    -0.39700
C1071       C  0.56079750  0.78625066  0.85672542    -0.04600
C1072       C  0.57014750  0.76151369  0.86178278     0.09500
C1073       C  0.58623475  0.76146302  0.89368291    -0.02000
C1074       C  0.59207562  0.78507582  0.92069649    -0.00300
C1075       C  0.58119786  0.80914151  0.91653066    -0.03900
C1076       C  0.56579209  0.80953029  0.88408967     0.03100
C1077       C  0.55961102  0.73255786  0.83566443     0.10000
C1078       C  0.59595921  0.73610714  0.89912529     0.35900
C1079       C  0.55482114  0.83369436  0.87867789     0.39300
C1080       C  0.58574379  0.73208181  0.81620131    -0.04200
C1081       C  0.57670103  0.70110611  0.79792136     0.02900
C1082       C  0.54113679  0.67075205  0.79792073    -0.03800
C1083       C  0.51440269  0.67268796  0.81467133    -0.00100
C1084       C  0.52378795  0.70300245  0.83410753    -0.02600
C1085       C  0.62204851  0.76340773  0.81545272     0.36600
C1086       C  0.47710618  0.64320608  0.81291562     0.40200
C1087       C  0.60378271  0.70077215  0.77838735     0.39400
C1088       C  0.49673818  0.70319185  0.85396854     0.36300
C1089       C  0.54607178  0.78769399  0.82317708     0.37000
C1090       C  0.60844210  0.78308394  0.95298880     0.40200
N1091       N  0.62526739  0.70044519  0.76260209    -0.37800
N1092       N  0.65098607  0.78850327  0.81470722    -0.39400
N1093       N  0.44722757  0.62008820  0.81112921    -0.37200
N1094       N  0.47537355  0.70357573  0.86990901    -0.39600
N1095       N  0.60379633  0.71600268  0.90336806    -0.39300
N1096       N  0.62154771  0.78064038  0.97825250    -0.37000
N1097       N  0.54573368  0.85267083  0.87358568    -0.38000
N1098       N  0.53451037  0.78891990  0.79628880    -0.39700
C1099       C  0.52774590  0.72378902  0.54217156    -0.04600
C1100       C  0.54284474  0.73189306  0.57616245     0.09500
C1101       C  0.56580021  0.76771370  0.58623727    -0.02000
C1102       C  0.57457248  0.79537070  0.56215663    -0.00300
C1103       C  0.56109995  0.78757068  0.52726667    -0.03900
C1104       C  0.53675731  0.75121216  0.51778666     0.03100
C1105       C  0.53570669  0.70256882  0.60087085     0.10000
C1106       C  0.58133731  0.77604218  0.62126106     0.35900
C1107       C  0.52897287  0.74708882  0.98436056     0.39300
C1108       C  0.55210606  0.68426216  0.59546660    -0.04200
C1109       C  0.54510940  0.65616171  0.61805674     0.02900
C1110       C  0.52241512  0.64661674  0.64756866    -0.03800
C1111       C  0.50529535  0.66489022  0.65217909    -0.00100
C1112       C  0.51214396  0.69266061  0.62906969    -0.02600
C1113       C  0.57627867  0.69438583  0.56621268     0.36600
C1114       C  0.47967404  0.65504704  0.67991779     0.40200
C1115       C  0.56008370  0.63626168  0.60892125     0.39400
C1116       C  0.49477974  0.71119229  0.63418366     0.36300
C1117       C  0.50366359  0.68690740  0.53183042     0.37000
C1118       C  0.59757720  0.83184803  0.57371927     0.40200
N1119       N  0.57199406  0.62073471  0.60013014    -0.37800
N1120       N  0.59541495  0.70239431  0.54283022    -0.39400
N1121       N  0.45892833  0.64737399  0.70167016    -0.37200
N1122       N  0.48116797  0.72617374  0.63831669    -0.39600
N1123       N  0.59362346  0.78247398  0.64923919    -0.39300
N1124       N  0.61608066  0.86065673  0.58379769    -0.37000
N1125       N  0.51650779  0.73814552  0.95658800    -0.38000
N1126       N  0.48474668  0.65762756  0.52318506    -0.39700
C1127       C  0.68995944  0.61294029  0.81982122    -0.04600
C1128       C  0.69592361  0.62664593  0.85399450     0.09500
C1129       C  0.67137967  0.63321683  0.86824810    -0.02000
C1130       C  0.64036319  0.62466549  0.84922077    -0.00300
C1131       C  0.63350195  0.60951952  0.81560379    -0.03900
C1132       C  0.65907925  0.60449715  0.80065175     0.03100
C1133       C  0.72510219  0.62970349  0.87681644     0.10000
C1134       C  0.67756501  0.64807535  0.90303031     0.35900
C1135       C  0.65288635  0.58860852  0.76625767     0.39300
C1136       C  0.76155273  0.65696316  0.87196914    -0.04200
C1137       C  0.78782258  0.66096709  0.89608005     0.02900
C1138       C  0.77764617  0.63958508  0.92678420    -0.03800
C1139       C  0.74130370  0.60983926  0.92928485    -0.00100
C1140       C  0.71568612  0.60476124  0.90399488    -0.02600
C1141       C  0.77194766  0.68153348  0.84278325     0.36600
C1142       C  0.72859286  0.58496893  0.95848480     0.40200
C1143       C  0.82538284  0.68710206  0.88924787     0.39400
C1144       C  0.67892498  0.57412153  0.90650675     0.36300
C1145       C  0.71491483  0.60610592  0.80489136     0.37000
C1146       C  0.61586904  0.63210579  0.86406964     0.40200
N1147       N  0.85539959  0.70779887  0.88382170    -0.37800
N1148       N  0.78035014  0.70114265  0.81944600    -0.39400
N1149       N  0.72159383  0.57617833  0.48415536    -0.37200
N1150       N  0.64968076  0.54972914  0.90853873    -0.39600
N1151       N  0.68197420  0.65977100  0.93081546    -0.39300
N1152       N  0.59644280  0.63821543  0.87589863    -0.37000
N1153       N  0.64806689  0.57597891  0.73885363    -0.38000
N1154       N  0.73491801  0.60084492  0.79291560    -0.39700
C1155       C  0.70256627  0.63529322  0.53769031    -0.04600
C1156       C  0.69574713  0.61555711  0.56859554     0.09500
C1157       C  0.72112392  0.60931818  0.58162543    -0.02000
C1158       C  0.75418180  0.62401813  0.56456127    -0.00300
C1159       C  0.76237606  0.64554391  0.53408414    -0.03900
C1160       C  0.73563299  0.65072095  0.52076256     0.03100
C1161       C  0.66474512  0.60669269  0.59063790     0.10000
C1162       C  0.71336701  0.58845438  0.61353075     0.35900
C1163       C  0.74152710  0.67273190  0.49022742     0.39300
C1164       C  0.63119335  0.57422534  0.58690318    -0.04200
C1165       C  0.60297027  0.56575024  0.60956295     0.02900
C1166       C  0.60840903  0.58971032  0.63627872    -0.03800
C1167       C  0.64174921  0.62320344  0.63841380    -0.00100
C1168       C  0.66957815  0.63154092  0.61561500    -0.02600
C1169       C  0.62597620  0.54952482  0.55997068     0.36600
C1170       C  0.64789352  0.64948716  0.66401872     0.40200
C1171       C  0.56876861  0.53198899  0.60605731     0.39400
C1172       C  0.70359825  0.66581984  0.61794182     0.36300
C1173       C  0.67562630  0.64062814  0.52393267     0.37000
C1174       C  0.76664996  0.59811061  0.07546418     0.40200
N1175       N  0.54101221  0.50543808  0.60381027    -0.37800
N1176       N  0.62183499  0.52989604  0.53837359    -0.39400
N1177       N  0.65307573  0.67038575  0.68459587    -0.37200
N1178       N  0.73070651  0.69311730  0.61957346    -0.39600
N1179       N  0.70703862  0.57184257  0.63897528    -0.39300
N1180       N  0.78043491  0.58604654  0.08965040    -0.37000
N1181       N  0.74546438  0.69055458  0.46633348    -0.38000
N1182       N  0.65413750  0.64478791  0.51294153    -0.39700
C1183       C  0.52344707  0.44686780  0.85802517    -0.04600
C1184       C  0.48722791  0.41827801  0.85889057     0.09500
C1185       C  0.46249900  0.41817762  0.83559030    -0.02000
C1186       C  0.47387159  0.44661771  0.81170062    -0.00300
C1187       C  0.51003929  0.47606350  0.81151264    -0.03900
C1188       C  0.53487348  0.47561586  0.83459545     0.03100
C1189       C  0.47498959  0.38853546  0.88494112     0.10000
C1190       C  0.42509932  0.38899574  0.83674738     0.35900
C1191       C  0.57214327  0.50511839  0.83547819     0.39300
C1192       C  0.46765305  0.39238469  0.91958544    -0.04200
C1193       C  0.45394929  0.36377807  0.94360778     0.02900
C1194       C  0.45012753  0.33142872  0.93424539    -0.03800
C1195       C  0.45664352  0.32761062  0.89884280    -0.00100
C1196       C  0.46926975  0.35610254  0.87460291    -0.02600
C1197       C  0.47354251  0.42583684  0.93032991     0.36600
C1198       C  0.44739121  0.29389432  0.88536931     0.40200
C1199       C  0.44095639  0.36726690  0.97679839     0.39400
C1200       C  0.47565327  0.35189594  0.83842222     0.36300
C1201       C  0.54888672  0.44694262  0.88193340     0.37000
C1202       C  0.44839887  0.44494887  0.78665522     0.40200
N1203       N  0.43024985  0.37069491  0.00270795    -0.37800
N1204       N  0.47848053  0.45257117  0.93896733    -0.39400
N1205       N  0.44005925  0.26818790  0.87137640    -0.37200
N1206       N  0.48060080  0.34863990  0.80950874    -0.41100
N1207       N  0.39525648  0.36573135  0.83781482    -0.39300
N1208       N  0.42811168  0.44350827  0.76655738    -0.37000
N1209       N  0.60202751  0.52828012  0.83650494    -0.38000
N1210       N  0.56907842  0.44699341  0.90111714    -0.39700
C1211       C  0.45004211  0.33666415  0.61554276    -0.04600
C1212       C  0.47641225  0.37348021  0.61257041     0.09500
C1213       C  0.49629714  0.38642544  0.58137324    -0.02000
C1214       C  0.48720336  0.36393346  0.55216162    -0.00300
C1215       C  0.45744294  0.32790444  0.55347219    -0.03900
C1216       C  0.44039315  0.31409779  0.58614961     0.03100
C1217       C  0.48194902  0.39918153  0.64095236     0.10000
C1218       C  0.52615245  0.42329254  0.57889735     0.35900
C1219       C  0.41270261  0.27654807  0.58950197     0.39300
C1220       C  0.51318611  0.41642727  0.66201562    -0.04200
C1221       C  0.52129385  0.44507770  0.68389525     0.02900
C1222       C  0.49811071  0.45707560  0.68512520    -0.03800
C1223       C  0.46424146  0.43594659  0.66805438    -0.00100
C1224       C  0.45674133  0.40797620  0.64541594    -0.02600
C1225       C  0.53717690  0.40471181  0.66097583     0.36600
C1226       C  0.43644857  0.44200278  0.67406382     0.40200
C1227       C  0.55336264  0.46153951  0.70562456     0.39400
C1228       C  0.42326445  0.38875707  0.62584115     0.36300
C1229       C  0.43289994  0.32207922  0.64896346     0.37000
C1230       C  0.50288580  0.37182944  0.01690107     0.40200
N1231       N  0.57888596  0.47453357  0.72303976    -0.37800
N1232       N  0.55629074  0.39531755  0.66037991    -0.39400
N1233       N  0.41364893  0.44589002  0.67920654    -0.37200
N1234       N  0.39652612  0.37328864  0.61029303    -0.39600
N1235       N  0.55057107  0.45234551  0.57631766    -0.39300
N1236       N  0.52051616  0.38443227  0.99231897    -0.37000
N1237       N  0.39068628  0.24653913  0.59223593    -0.38000
N1238       N  0.41947894  0.31042328  0.67576590    -0.39700
C1239       C  0.92610421  0.61609244  0.63311259    -0.04600
C1240       C  0.93827760  0.63083766  0.59942445     0.09500
C1241       C  0.97327404  0.64225580  0.58945917    -0.02000
C1242       C  0.99521693  0.63729343  0.61239039    -0.00300
C1243       C  0.98263658  0.62173371  0.64577581    -0.03900
C1244       C  0.94822954  0.61205187  0.65634917     0.03100
C1245       C  0.91248430  0.63064892  0.57367978     0.10000
C1246       C  0.98644153  0.65868197  0.55539813     0.35900
C1247       C  0.93422992  0.59551876  0.69034314     0.39300
C1248       C  0.90107261  0.65362245  0.57768334    -0.04200
C1249       C  0.87188051  0.64879734  0.55758278     0.02900
C1250       C  0.85270904  0.61989197  0.53388103    -0.03800
C1251       C  0.86794699  0.60005646  0.52687822    -0.00100
C1252       C  0.89665295  0.60474784  0.54737333    -0.02600
C1253       C  0.91873121  0.68154220  0.60370090     0.36600
C1254       C  0.85519737  0.57484705  0.49834710     0.40200
C1255       C  0.86226789  0.67393921  0.56236664     0.39400
C1256       C  0.90894745  0.58156832  0.54244791     0.36300
C1257       C  0.88993055  0.60341294  0.64331711     0.37000
C1258       C  0.03085842  0.64862504  0.60188653     0.40200
N1259       N  0.85650594  0.69520150  0.56816736    -0.37800
N1260       N  0.93269836  0.70360271  0.62464349    -0.39400
N1261       N  0.84577051  0.55442477  0.47596327    -0.37200
N1262       N  0.91876003  0.56313807  0.53856147    -0.39600
N1263       N  0.99692638  0.67176667  0.52817805    -0.39300
N1264       N  0.05936451  0.65772051  0.59363045    -0.37000
N1265       N  0.92285042  0.58230279  0.71734278    -0.38000
N1266       N  0.86108644  0.59327015  0.65138835    -0.39700
C1267       C  0.83595364  0.57735635  0.87490000    -0.04600
C1268       C  0.87297769  0.60246738  0.87946413     0.09500
C1269       C  0.88546282  0.62674406  0.90721842    -0.02000
C1270       C  0.86149770  0.62393702  0.93234228    -0.00300
C1271       C  0.82444869  0.59578865  0.93040561    -0.03900
C1272       C  0.81167750  0.57429360  0.90002848     0.03100
C1273       C  0.89953822  0.60127120  0.85770855     0.10000
C1274       C  0.92358952  0.65355608  0.91094097     0.35900
C1275       C  0.77358573  0.54908292  0.89448727     0.39300
C1276       C  0.91536980  0.62389068  0.82850361    -0.04200
C1277       C  0.94370526  0.62580198  0.81084279     0.02900
C1278       C  0.95604905  0.60426483  0.82186655    -0.03800
C1279       C  0.93973845  0.58160303  0.85166460    -0.00100
C1280       C  0.91168117  0.58014089  0.86910148    -0.02600
C1281       C  0.90242318  0.64535342  0.81681035     0.36600
C1282       C  0.95105721  0.55918534  0.86497999     0.40200
C1283       C  0.96069489  0.65107182  0.78220087     0.39400
C1284       C  0.89525677  0.55678720  0.89924451     0.36300
C1285       C  0.82313529  0.55391278  0.84492758     0.37000
C1286       C  0.87619133  0.64971248  0.96046972     0.40200
N1287       N  0.97423641  0.67137466  0.75945991    -0.37800
N1288       N  0.89190102  0.66230028  0.80746415    -0.39400
N1289       N  0.95978301  0.54118491  0.87588748    -0.37200
N1290       N  0.88234594  0.53799002  0.92314489    -0.39600
N1291       N  0.95396201  0.67478740  0.91393197    -0.39300
N1292       N  0.88857706  0.67077092  0.98245002    -0.37000
N1293       N  0.74316987  0.52899726  0.89003716    -0.38000
N1294       N  0.81308113  0.53529793  0.82092129    -0.39700
C1295       C  0.90727481  0.45773096  0.62814649    -0.04600
C1296       C  0.90518839  0.42646468  0.63743244     0.09500
C1297       C  0.92957018  0.42813532  0.66232109    -0.02000
C1298       C  0.95593953  0.46099863  0.67787632    -0.00300
C1299       C  0.95679160  0.49206649  0.67006734    -0.03900
C1300       C  0.93290084  0.49022536  0.64410907     0.03100
C1301       C  0.87866921  0.39289634  0.61836399     0.10000
C1302       C  0.92705894  0.39588763  0.67220763     0.35900
C1303       C  0.93591594  0.52200701  0.63139209     0.39300
C1304       C  0.88964939  0.38308191  0.58891794    -0.04200
C1305       C  0.86443299  0.36140159  0.56278220     0.02900
C1306       C  0.82893997  0.35241683  0.56468234    -0.03800
C1307       C  0.81696279  0.35643444  0.59721536    -0.00100
C1308       C  0.84182504  0.37631813  0.62420719    -0.02600
C1309       C  0.92738892  0.39846041  0.58367011     0.36600
C1310       C  0.77964456  0.34337176  0.60156876     0.40200
C1311       C  0.87604410  0.35075861  0.53327303     0.39400
C1312       C  0.83009194  0.38323062  0.65633488     0.36300
C1313       C  0.88314530  0.45658932  0.60153351     0.37000
C1314       C  0.98281736  0.46287439  0.70081687     0.40200
N1315       N  0.88599493  0.34238901  0.51014218    -0.37800
N1316       N  0.95753984  0.41097108  0.57943268    -0.39400
N1317       N  0.74997215  0.33336869  0.60497483    -0.37200
N1318       N  0.82070625  0.38878435  0.68194104    -0.39600
N1319       N  0.92478479  0.37000995  0.68016076    -0.39300
N1320       N  0.00493449  0.46444437  0.71817472    -0.37000
N1321       N  0.93740408  0.54642948  0.61972698    -0.38000
N1322       N  0.86388070  0.45572050  0.58048304    -0.39700
C1323       C  0.82920589  0.38146391  0.87710772    -0.04600
C1324       C  0.86670475  0.40657234  0.87764401     0.09500
C1325       C  0.88557214  0.41363693  0.90978126    -0.02000
C1326       C  0.86737682  0.39572333  0.94078692    -0.00300
C1327       C  0.82991610  0.37013308  0.94019480    -0.03900
C1328       C  0.81092759  0.36486478  0.90858630     0.03100
C1329       C  0.88608398  0.42968790  0.84622261     0.10000
C1330       C  0.92345290  0.44177161  0.91162877     0.35900
C1331       C  0.77237806  0.34487808  0.90965358     0.39300
C1332       C  0.87974583  0.45548849  0.83492583    -0.04200
C1333       C  0.90248476  0.48189056  0.81028566     0.02900
C1334       C  0.93446495  0.48545031  0.79957066    -0.03800
C1335       C  0.93966341  0.45839783  0.80975322    -0.00100
C1336       C  0.91467101  0.42989278  0.83142565    -0.02600
C1337       C  0.85133205  0.45667347  0.85063546     0.36600
C1338       C  0.97171349  0.46044440  0.80004986     0.40200
C1339       C  0.89337140  0.50632933  0.79798323     0.39400
C1340       C  0.91986923  0.40186748  0.84013356     0.36300
C1341       C  0.80929173  0.37372446  0.84447983     0.37000
C1342       C  0.87897324  0.40321117  0.47022039     0.40200
N1343       N  0.88560846  0.52544484  0.78824424    -0.37800
N1344       N  0.82877106  0.45772736  0.86317181    -0.39400
N1345       N  0.99753647  0.46201496  0.79363837    -0.37200
N1346       N  0.92503447  0.38008999  0.84640180    -0.39600
N1347       N  0.95358612  0.46426735  0.91304826    -0.39300
N1348       N  0.89701331  0.41633561  0.49472284    -0.37000
N1349       N  0.74174860  0.32954795  0.91251171    -0.38000
N1350       N  0.79340074  0.36768240  0.81843473    -0.39700
C1351       C  0.18200571  0.59552391  0.65486620    -0.04600
C1352       C  0.17219306  0.57358632  0.62510583     0.09500
C1353       C  0.13531529  0.54896497  0.61772783    -0.02000
C1354       C  0.10916861  0.55073398  0.63577527    -0.00300
C1355       C  0.11941243  0.57530725  0.66327032    -0.03900
C1356       C  0.15551474  0.59466420  0.67506717     0.03100
C1357       C  0.19985175  0.58061586  0.59824751     0.10000
C1358       C  0.12451909  0.52308906  0.59016472     0.35900
C1359       C  0.16589301  0.61423844  0.70763569     0.39300
C1360       C  0.22818102  0.57645287  0.60584123    -0.04200
C1361       C  0.25585464  0.58740961  0.58117121     0.02900
C1362       C  0.25301374  0.59774971  0.54675555    -0.03800
C1363       C  0.22430904  0.60174411  0.53940489    -0.00100
C1364       C  0.19902095  0.59452776  0.56521131    -0.02600
C1365       C  0.22921489  0.56135586  0.63921005     0.36600
C1366       C  0.22170120  0.61597585  0.50613153     0.40200
C1367       C  0.28906392  0.59247115  0.59290016     0.39400
C1368       C  0.17291715  0.60320078  0.55821932     0.36300
C1369       C  0.21946138  0.62097992  0.66339541     0.37000
C1370       C  0.07168246  0.52697514  0.62627969     0.40200
N1371       N  0.31581575  0.59759913  0.60328849    -0.37800
N1372       N  0.23007281  0.54925317  0.66581946    -0.39400
N1373       N  0.21148573  0.62229518  0.98151698    -0.37200
N1374       N  0.15224223  0.61024060  0.55281118    -0.39600
N1375       N  0.11602539  0.50247667  0.56815886    -0.39300
N1376       N  0.04173805  0.50796468  0.61882186    -0.37000
N1377       N  0.17443557  0.62923264  0.73402445    -0.38000
N1378       N  0.24931740  0.64138255  0.67025904    -0.39700
C1379       C  0.23927318  0.60802814  0.87157895    -0.04600
C1380       C  0.20260806  0.58212423  0.87553954     0.09500
C1381       C  0.19057576  0.56004400  0.90535352    -0.02000
C1382       C  0.21464117  0.56606187  0.93293935    -0.00300
C1383       C  0.25139190  0.59498627  0.93109053    -0.03900
C1384       C  0.26342129  0.61540768  0.89944833     0.03100
C1385       C  0.17640401  0.58406546  0.85282888     0.10000
C1386       C  0.15261370  0.53288500  0.90877749     0.35900
C1387       C  0.29961830  0.64646760  0.89587889     0.39300
C1388       C  0.15935718  0.56139039  0.82389847    -0.04200
C1389       C  0.13493001  0.56427148  0.80288831     0.02900
C1390       C  0.12747482  0.58976587  0.81095574    -0.03800
C1391       C  0.14432785  0.61207840  0.84024548    -0.00100
C1392       C  0.16884128  0.60940605  0.86086107    -0.02600
C1393       C  0.16722580  0.53541489  0.81575429     0.36600
C1394       C  0.13554375  0.63690536  0.85056114     0.40200
C1395       C  0.11823428  0.54175306  0.77247682     0.39400
C1396       C  0.18637739  0.63290994  0.89058183     0.36300
C1397       C  0.25157625  0.62900097  0.83948054     0.37000
C1398       C  0.20185691  0.54293539  0.47096961     0.40200
N1399       N  0.10497867  0.52392810  0.74809855    -0.37800
N1400       N  0.17354269  0.51466302  0.80936367    -0.39400
N1401       N  0.12915936  0.65677753  0.86020059    -0.37200
N1402       N  0.20037580  0.65191553  0.91404386    -0.39600
N1403       N  0.12234317  0.51135349  0.91149528    -0.39300
N1404       N  0.19154731  0.52696093  0.49692728    -0.37000
N1405       N  0.32782977  0.67206168  0.89185384    -0.38000
N1406       N  0.26123254  0.64555979  0.81382405    -0.39700
C1407       C  0.13684098  0.74868830  0.63808438    -0.04600
C1408       C  0.17329386  0.76473342  0.63071261     0.09500
C1409       C  0.19217076  0.75191581  0.64702972    -0.02000
C1410       C  0.17376289  0.72056263  0.66743096    -0.00300
C1411       C  0.13648007  0.70300098  0.67330912    -0.03900
C1412       C  0.11897390  0.71901826  0.66063195     0.03100
C1413       C  0.19062127  0.79293560  0.60317889     0.10000
C1414       C  0.23055202  0.77095245  0.64245873     0.35900
C1415       C  0.08344012  0.70677110  0.67241990     0.39300
C1416       C  0.19994213  0.82751324  0.60989009    -0.04200
C1417       C  0.20889191  0.85167127  0.58193269     0.02900
C1418       C  0.21051045  0.84197372  0.54716642    -0.03800
C1419       C  0.20542461  0.80848138  0.54154396    -0.00100
C1420       C  0.19429475  0.78376916  0.56924326    -0.02600
C1421       C  0.19905283  0.83763562  0.64553546     0.36600
C1422       C  0.20989081  0.79803016  0.50731417     0.40200
C1423       C  0.21591505  0.88629590  0.58917466     0.39400
C1424       C  0.18447643  0.74794673  0.56242780     0.36300
C1425       C  0.11744176  0.76223183  0.62168296     0.37000
C1426       C  0.19361882  0.70653598  0.68130415     0.40200
N1427       N  0.22141808  0.91383876  0.59524395    -0.37800
N1428       N  0.19841611  0.84559692  0.67404220    -0.39400
N1429       N  0.23312115  0.79172437  0.99430636    -0.37200
N1430       N  0.17638884  0.71933252  0.55701795    -0.39600
N1431       N  0.26121428  0.78626673  0.63925050    -0.39300
N1432       N  0.21061363  0.69647648  0.69199550    -0.37000
N1433       N  0.05552258  0.69816212  0.68215682    -0.38000
N1434       N  0.10202972  0.77301556  0.60845209    -0.39700
C1435       C  0.16240013  0.75144755  0.82470804    -0.04600
C1436       C  0.14605768  0.76067352  0.84925282     0.09500
C1437       C  0.10851755  0.73866943  0.85299177    -0.02000
C1438       C  0.08805543  0.70585792  0.83532890    -0.00300
C1439       C  0.10437501  0.69576952  0.81146393    -0.03900
C1440       C  0.14180790  0.71920884  0.80598269     0.03100
C1441       C  0.16809044  0.78858943  0.87644568     0.10000
C1442       C  0.09115790  0.74915336  0.87665608     0.35900
C1443       C  0.16051932  0.70881650  0.78439537     0.39300
C1444       C  0.18570512  0.82534448  0.86933955    -0.04200
C1445       C  0.20210016  0.85036091  0.89704017     0.02900
C1446       C  0.20006375  0.83866420  0.93212875    -0.03800
C1447       C  0.17911851  0.80150291  0.93880832    -0.00100
C1448       C  0.16710946  0.77723523  0.91119523    -0.02600
C1449       C  0.18598141  0.83722070  0.83382460     0.36600
C1450       C  0.16215403  0.78740348  0.97241031     0.40200
C1451       C  0.21871633  0.88783130  0.88977296     0.39400
C1452       C  0.15098522  0.73979924  0.91893677     0.36300
C1453       C  0.20074547  0.77445310  0.81966697     0.37000
C1454       C  0.05079012  0.68194580  0.84410936     0.40200
N1455       N  0.23193976  0.91773980  0.88391991    -0.37800
N1456       N  0.18619105  0.84661391  0.80540412    -0.39400
N1457       N  0.13138361  0.78959976  0.50746646    -0.37200
N1458       N  0.13814968  0.71000795  0.92508857    -0.39600
N1459       N  0.07738547  0.75751023  0.89557233    -0.39300
N1460       N  0.02156318  0.66414045  0.85345051    -0.37000
N1461       N  0.17740613  0.70185321  0.76855333    -0.38000
N1462       N  0.23123974  0.79271166  0.81503060    -0.39700
C1463       C  0.68864347  0.22636162  0.66332676    -0.04600
C1464       C  0.69841077  0.21300676  0.63605862     0.09500
C1465       C  0.67762454  0.17624622  0.62914114    -0.02000
C1466       C  0.64585792  0.15323804  0.64782007    -0.00300
C1467       C  0.63393110  0.16697784  0.67267881    -0.03900
C1468       C  0.65641747  0.20359471  0.68144552     0.03100
C1469       C  0.72777545  0.23774047  0.61157066     0.10000
C1470       C  0.68882395  0.16224542  0.60230243     0.35900
C1471       C  0.64575607  0.21854916  0.70781114     0.39300
C1472       C  0.76210300  0.24430608  0.61499890    -0.04200
C1473       C  0.78719766  0.26198491  0.58787379     0.02900
C1474       C  0.77769152  0.27221674  0.55657138    -0.03800
C1475       C  0.74435846  0.26886415  0.55516879    -0.00100
C1476       C  0.71977000  0.25182301  0.58266489    -0.02600
C1477       C  0.77102537  0.23169778  0.64590927     0.36600
C1478       C  0.73371051  0.28108668  0.52522992     0.40200
C1479       C  0.82272953  0.26925371  0.59203010     0.39400
C1480       C  0.68538884  0.24759178  0.58066839     0.36300
C1481       C  0.71149632  0.26372069  0.67220714     0.37000
C1482       C  0.62714613  0.11533549  0.64308433     0.40200
N1483       N  0.85110173  0.27509923  0.59529441    -0.37800
N1484       N  0.77809407  0.22158265  0.67058994    -0.39400
N1485       N  0.72412817  0.29041124  0.50186709    -0.37200
N1486       N  0.65816213  0.24453864  0.57904566    -0.39600
N1487       N  0.69796298  0.15126604  0.58091249    -0.39300
N1488       N  0.61377845  0.08520687  0.63943052    -0.37000
N1489       N  0.63748675  0.23073705  0.72875924    -0.38000
N1490       N  0.72979553  0.29344083  0.67959555    -0.39700
C1491       C  0.72190454  0.23699124  0.91005845    -0.04600
C1492       C  0.73319970  0.25023280  0.87578749     0.09500
C1493       C  0.77005227  0.27545448  0.86980606    -0.02000
C1494       C  0.79494991  0.28827782  0.89823704    -0.00300
C1495       C  0.78322399  0.27716642  0.93300072    -0.03900
C1496       C  0.74681706  0.24895168  0.93797101     0.03100
C1497       C  0.70617806  0.23295551  0.84635127     0.10000
C1498       C  0.78241724  0.28721527  0.83434725     0.35900
C1499       C  0.73559670  0.22765328  0.96980004     0.39300
C1500       C  0.67810733  0.23811581  0.84338409    -0.04200
C1501       C  0.64588957  0.21303013  0.82592835     0.02900
C1502       C  0.64203428  0.18343380  0.80927228    -0.03800
C1503       C  0.67192657  0.18087946  0.80830708    -0.00100
C1504       C  0.70356027  0.20513087  0.82727166    -0.02600
C1505       C  0.68114625  0.26829640  0.85959089     0.36600
C1506       C  0.67018978  0.15312442  0.78811156     0.40200
C1507       C  0.61585307  0.21650178  0.82786056     0.39400
C1508       C  0.73276999  0.20034811  0.82856881     0.36300
C1509       C  0.68465490  0.20876495  0.91620212     0.37000
C1510       C  0.83292486  0.31071222  0.89165274     0.40200
N1511       N  0.59204050  0.21940335  0.82981341    -0.37800
N1512       N  0.68133867  0.29174120  0.87127333    -0.39400
N1513       N  0.66881160  0.13102214  0.77194505    -0.37200
N1514       N  0.75614538  0.19663261  0.82944521    -0.39600
N1515       N  0.79228919  0.29639283  0.80597300    -0.39300
N1516       N  0.86340636  0.32829512  0.88700606    -0.37000
N1517       N  0.71939788  0.21201340  0.49461032    -0.38000
N1518       N  0.65500278  0.18626661  0.92094035    -0.39700
C1519       C  0.52603827  0.28646980  0.61037910    -0.04600
C1520       C  0.50350874  0.24900380  0.60988119     0.09500
C1521       C  0.47656600  0.23251091  0.58389516    -0.02000
C1522       C  0.47421404  0.25295462  0.55703458    -0.00300
C1523       C  0.50104263  0.28988020  0.55360328    -0.03900
C1524       C  0.52501466  0.30681974  0.58239557     0.03100
C1525       C  0.51028145  0.22685039  0.63435747     0.10000
C1526       C  0.45186287  0.19410746  0.58401039     0.35900
C1527       C  0.54819133  0.34524072  0.58385257     0.39300
C1528       C  0.48654417  0.20635455  0.66180450    -0.04200
C1529       C  0.49221539  0.18379718  0.68281317     0.02900
C1530       C  0.52219866  0.18219498  0.67715994    -0.03800
C1531       C  0.54543795  0.20227776  0.64926724    -0.00100
C1532       C  0.53961628  0.22446754  0.62817722    -0.02600
C1533       C  0.45620332  0.20842788  0.66826850     0.36600
C1534       C  0.57409384  0.19840787  0.64023613     0.40200
C1535       C  0.46716292  0.16225985  0.71019936     0.39400
C1536       C  0.56333836  0.24413641  0.59915452     0.36300
C1537       C  0.55081416  0.30396129  0.63946247     0.37000
C1538       C  0.45208517  0.22704483  0.02681225     0.40200
N1539       N  0.44712481  0.14513983  0.73208499    -0.37800
N1540       N  0.43191502  0.21004158  0.67321367    -0.39400
N1541       N  0.59677661  0.19563173  0.63137864    -0.37200
N1542       N  0.58219529  0.25985122  0.57602525    -0.39600
N1543       N  0.43212944  0.16350626  0.58407487    -0.39300
N1544       N  0.43034150  0.20730738  0.00720720    -0.37000
N1545       N  0.56682597  0.37591833  0.58495097    -0.38000
N1546       N  0.57043508  0.31787809  0.66280351    -0.39700
C1547       C  0.47869903  0.14797747  0.88253471    -0.04600
C1548       C  0.48338133  0.18031197  0.87243550     0.09500
C1549       C  0.49354476  0.19266529  0.83780747    -0.02000
C1550       C  0.50263107  0.17500510  0.81448615    -0.00300
C1551       C  0.49884350  0.14279309  0.82453087    -0.03900
C1552       C  0.48583339  0.12905327  0.85870358     0.03100
C1553       C  0.48370388  0.20452505  0.89933424     0.10000
C1554       C  0.49656847  0.22499538  0.82681230     0.35900
C1555       C  0.48118138  0.09615429  0.87028774     0.39300
C1556       C  0.51536748  0.22782135  0.91821432    -0.04200
C1557       C  0.51734275  0.25286366  0.94130775     0.02900
C1558       C  0.48906833  0.25843045  0.94261571    -0.03800
C1559       C  0.45562142  0.23117106  0.92782141    -0.00100
C1560       C  0.45321092  0.20475701  0.90594794    -0.02600
C1561       C  0.54624739  0.22601857  0.91385170     0.36600
C1562       C  0.42290054  0.22815410  0.93629301     0.40200
C1563       C  0.54705494  0.26963330  0.96613936     0.39400
C1564       C  0.41926635  0.17743233  0.89038661     0.36300
C1565       C  0.46781182  0.13493223  0.91806271     0.37000
C1566       C  0.52068739  0.19349310  0.78256818     0.40200
N1567       N  0.58673105  0.30243468  0.47705699    -0.37800
N1568       N  0.57089606  0.22467537  0.91037323    -0.39400
N1569       N  0.39555435  0.22350098  0.94244265    -0.37200
N1570       N  0.39217590  0.15534607  0.87816956    -0.39600
N1571       N  0.49869427  0.25061826  0.81805345    -0.39300
N1572       N  0.53598214  0.21079748  0.75841013    -0.37000
N1573       N  0.47764952  0.07015256  0.88014906    -0.38000
N1574       N  0.45919561  0.12463359  0.94645691    -0.39700
C1575       C  0.32079662  0.88692494  0.59740754    -0.04600
C1576       C  0.32815704  0.92073934  0.60488641     0.09500
C1577       C  0.31117585  0.93355825  0.58459797    -0.02000
C1578       C  0.29321407  0.91654999  0.55301443    -0.00300
C1579       C  0.28981989  0.88475078  0.54285789    -0.03900
C1580       C  0.30015212  0.86827207  0.56754630     0.03100
C1581       C  0.35776914  0.94520860  0.63004136     0.10000
C1582       C  0.31428675  0.96572988  0.59529577     0.35900
C1583       C  0.29087179  0.83256463  0.56143022     0.39300
C1584       C  0.38931554  0.97575655  0.61674422    -0.04200
C1585       C  0.41758949  0.99911025  0.63950657     0.02900
C1586       C  0.41626065  0.99065638  0.67547440    -0.03800
C1587       C  0.38467755  0.96027807  0.68900841    -0.00100
C1588       C  0.35512363  0.93823999  0.66650961    -0.02600
C1589       C  0.39344459  0.98265515  0.57925601     0.36600
C1590       C  0.38224088  0.95211859  0.72616442     0.40200
C1591       C  0.44837834  0.03164833  0.62547728     0.39400
C1592       C  0.32204889  0.90841296  0.68080116     0.36300
C1593       C  0.33657687  0.87236493  0.61885691     0.37000
C1594       C  0.27991176  0.93321989  0.53114727     0.40200
N1595       N  0.47243462  0.05795150  0.61426156    -0.37800
N1596       N  0.39704205  0.98831823  0.54942519    -0.39400
N1597       N  0.38018313  0.94546875  0.75579290    -0.37200
N1598       N  0.29564049  0.88453247  0.69210967    -0.39600
N1599       N  0.31675440  0.99134681  0.60389443    -0.39300
N1600       N  0.26956276  0.94724585  0.51441393    -0.37000
N1601       N  0.28343924  0.80410281  0.55645714    -0.38000
N1602       N  0.34911960  0.86068556  0.63596104    -0.39700
C1603       C  0.30656068  0.90879154  0.86634486    -0.04600
C1604       C  0.33010897  0.94575607  0.87141351     0.09500
C1605       C  0.33033653  0.96018899  0.90384529    -0.02000
C1606       C  0.31284506  0.93761801  0.93291284    -0.00300
C1607       C  0.29240394  0.90006965  0.92910304    -0.03900
C1608       C  0.28897749  0.88593010  0.89532279     0.03100
C1609       C  0.36305772  0.96672286  0.84930692     0.10000
C1610       C  0.35293030  0.99847831  0.90845634     0.35900
C1611       C  0.27164395  0.84795333  0.89149228     0.39300
C1612       C  0.36845025  0.99340975  0.82557037    -0.04200
C1613       C  0.40192151  0.01565446  0.80876958     0.02900
C1614       C  0.43050283  0.01168699  0.81597903    -0.03800
C1615       C  0.42461137  0.98466682  0.83976699    -0.00100
C1616       C  0.39127475  0.96242236  0.85604906    -0.02600
C1617       C  0.33975358  0.99832353  0.81903827     0.36600
C1618       C  0.45235087  0.97875266  0.84786744     0.40200
C1619       C  0.40727345  0.04346248  0.78509844     0.39400
C1620       C  0.38634391  0.93538111  0.88079938     0.36300
C1621       C  0.30316397  0.89431450  0.83181926     0.37000
C1622       C  0.32336873  0.95355073  0.96732191     0.40200
N1623       N  0.41161715  0.06569484  0.76619636    -0.37800
N1624       N  0.31684227  0.00229506  0.81393417    -0.39400
N1625       N  0.47319975  0.97264192  0.85588410    -0.37200
N1626       N  0.38264320  0.91388826  0.90038316    -0.39600
N1627       N  0.37096859  0.02897034  0.91207155    -0.39300
N1628       N  0.34197916  0.96149727  0.48917961    -0.37000
N1629       N  0.25823848  0.81764652  0.88916637    -0.38000
N1630       N  0.30016361  0.88287622  0.80410699    -0.39700
C1631       C  0.54405493  0.96130231  0.63688307    -0.04600
C1632       C  0.53956176  0.96573056  0.60085804     0.09500
C1633       C  0.53904263  0.99516303  0.59000374    -0.02000
C1634       C  0.53996675  0.01832756  0.61496506    -0.00300
C1635       C  0.54177846  0.01256569  0.65174683    -0.03900
C1636       C  0.54685613  0.98551268  0.66193032     0.03100
C1637       C  0.53554947  0.93959137  0.57411779     0.10000
C1638       C  0.53721703  0.00141478  0.55279130     0.35900
C1639       C  0.55768159  0.98401935  0.69750623     0.39300
C1640       C  0.50188131  0.91533982  0.55845093    -0.04200
C1641       C  0.49761670  0.88975660  0.53448010     0.02900
C1642       C  0.52700214  0.88795261  0.52585253    -0.03800
C1643       C  0.56093481  0.91303230  0.54086840    -0.00100
C1644       C  0.56526778  0.93907644  0.56431244    -0.02600
C1645       C  0.47130209  0.91620999  0.56768683     0.36600
C1646       C  0.59091629  0.91032842  0.53493945     0.40200
C1647       C  0.46244380  0.86456276  0.51970073     0.39400
C1648       C  0.60029675  0.96512348  0.57893903     0.36300
C1649       C  0.54473021  0.93108833  0.64831059     0.37000
C1650       C  0.54084195  0.04898427  0.60181909     0.40200
N1651       N  0.43450725  0.84070497  0.01581621    -0.37800
N1652       N  0.44698758  0.91705300  0.57494828    -0.39400
N1653       N  0.61524983  0.90856949  0.53111593    -0.37200
N1654       N  0.62817438  0.98598804  0.59067500    -0.39600
N1655       N  0.53568534  0.00632756  0.52315609    -0.39300
N1656       N  0.54236995  0.07368929  0.59081662    -0.37000
N1657       N  0.56764767  0.98352780  0.72552578    -0.38000
N1658       N  0.54497757  0.90678661  0.65735169    -0.39700
C1659       C  0.57647063  0.92984467  0.90895226    -0.04600
C1660       C  0.54408306  0.92387551  0.89542492     0.09500
C1661       C  0.51152295  0.89554071  0.90956289    -0.02000
C1662       C  0.51135983  0.87308213  0.93577073    -0.00300
C1663       C  0.54372690  0.88103098  0.95176046    -0.03900
C1664       C  0.57636502  0.90967328  0.93790342     0.03100
C1665       C  0.54406593  0.94820988  0.86761185     0.10000
C1666       C  0.47795572  0.88988986  0.89776642     0.35900
C1667       C  0.61010518  0.91884208  0.95291185     0.39300
C1668       C  0.52813462  0.93522871  0.83413477    -0.04200
C1669       C  0.52436522  0.95704927  0.80987506     0.02900
C1670       C  0.53864586  0.99307805  0.81767887    -0.03800
C1671       C  0.55563781  0.00627073  0.85096811    -0.00100
C1672       C  0.55778732  0.98393297  0.87569453    -0.02600
C1673       C  0.51540176  0.89916186  0.82461754     0.36600
C1674       C  0.56851173  0.04220826  0.86141219     0.40200
C1675       C  0.50503712  0.94191965  0.77724134     0.39400
C1676       C  0.57303131  0.99752207  0.91025506     0.36300
C1677       C  0.61002566  0.95656716  0.89269721     0.37000
C1678       C  0.47254271  0.83566452  0.44144671     0.40200
N1679       N  0.48929884  0.92951071  0.75137635    -0.37800
N1680       N  0.50512630  0.87036143  0.81696782    -0.39400
N1681       N  0.57868298  0.07077594  0.86989457    -0.37200
N1682       N  0.58531851  0.00837562  0.93774611    -0.39600
N1683       N  0.45122441  0.88550741  0.88841526    -0.39300
N1684       N  0.44585794  0.80927618  0.44823999    -0.37000
N1685       N  0.63803810  0.92769919  0.96370738    -0.38000
N1686       N  0.63679882  0.97775844  0.87963279    -0.39700
loop_ 
_geom_bond_atom_site_label_1 
_geom_bond_atom_site_label_2 
_geom_bond_distance 
_geom_bond_site_symmetry_2 
_ccdc_geom_bond_type 
N1            C5   1.378       .  A
N1          C845   1.368       .  A
N1          C820   1.462       .  S
C2          N844   1.372   1_554  A
C2            C3   1.374       .  A
C2          C799   1.507       .  S
C3            C4   1.363       .  A
C3            H6   1.082       .  S
C4          C848   1.391   1_554  A
C4            H7   1.077       .  S
C5          N165   1.457       .  S
C5          C847   1.392       .  A
N8           C12   1.371       .  A
N8          C852   1.370       .  A
N8          N108   1.433       .  S
C9          N851   1.371   1_554  A
C9           C10   1.384       .  A
C9          C736   1.508       .  S
C10         C854   1.362   1_554  A
C10          H13   1.082       .  S
C11          C12   1.382       .  A
C11         C853   1.363       .  A
C11          H14   1.083       .  S
C12         C764   1.503       .  S
O15          C23   1.266       .  A
O15         Co35   1.982       .  S
O16          C24   1.261       .  A
O16         Co36   2.030       .  S
O17          C25   1.256       .  A
O17         Co37   1.997       .  S
O18          C26   1.267       .  A
O18         Co38   1.992       .  S
O19          C25   1.252       .  A
O19         Co36   1.983       .  S
O20          C26   1.267       .  A
O20         Co35   1.986       .  S
O21          C24   1.240       .  A
O21         Co38   1.958       .  S
O22          C23   1.279       .  A
O22         Co37   2.047       .  S
C23         C827   1.518   1_545  S
C24         C624   1.501       .  S
C25         C792   1.521       .  S
C26         C659   1.496       .  S
O27          C40   1.270       .  A
O27         Co35   2.019       .  S
O28          C41   1.305       .  A
O28         Co36   2.089       .  S
O29          C42   1.255       .  A
O29         Co37   1.987       .  S
O30          C43   1.269       .  A
O30         Co38   1.908       .  S
O31          C43   1.296       .  A
O31         Co36   2.081       .  S
O32          C42   1.266       .  A
O32         Co35   2.016       .  S
O33          C40   1.269       .  A
O33         Co38   2.009       .  S
O34          C41   1.276       .  A
O34         Co37   1.893       .  S
Co35         O39   2.088       .  S
Co36         O39   2.251       .  S
Co37         O39   1.942       .  S
Co38         O39   1.940       .  S
C40         C708   1.511       .  S
C41         C743   1.493   1_545  S
C42         C771   1.505       .  S
C43         C687   1.497       .  S
N44          C48   1.362       .  A
N44          C45   1.364       .  A
N44         N144   1.433       .  S
C45          C46   1.385       .  A
C45         C715   1.541       .  S
C46          C47   1.374       .  A
C46          H49   1.082       .  S
C47          C48   1.385       .  A
C47         H893   1.080       .  S
C48        C1523   1.521       .  S
H50         C890   1.081   1_554  S
N51          C52   1.366       .  A
N51         C898   1.361       .  A
N51         N937   1.429       .  S
C52          C53   1.385       .  A
C52         C652   1.498       .  S
C53         C897   1.373       .  A
C53          H56   1.083       .  S
C54          C55   1.382       .  A
C54         C896   1.375   1_554  A
C54          H57   1.082       .  S
C55         N894   1.358   1_554  A
C55         C631   1.507       .  S
O58          C66   1.280       .  A
O58         Co78   2.053       .  S
O59          C67   1.263   1_455  A
O59         Co79   2.025       .  S
O60          C68   1.265       .  A
O60         Co80   1.899       .  S
O61          C69   1.258       .  A
O61         Co81   1.968       .  S
O62          C68   1.299       .  A
O62         Co79   2.118       .  S
O63          C69   1.271       .  A
O63         Co78   2.018   1_655  S
O64          C67   1.249   1_455  A
O64         Co81   1.954   1_455  S
O65          C66   1.262       .  A
O65         Co80   1.973       .  S
C66         C596   1.496       .  S
C67         C400   1.486       .  S
C68         C568   1.504       .  S
C69         C435   1.507       .  S
O70          C83   1.269       .  A
O70         Co78   1.982   1_655  S
O71          C84   1.268       .  A
O71         Co79   1.901       .  S
O72          C85   1.266       .  A
O72         Co80   2.011       .  S
O73          C86   1.283       .  A
O73         Co81   2.038       .  S
O74          C86   1.272   1_455  A
O74         Co79   1.981       .  S
O75          C85   1.257       .  A
O75         Co78   1.978       .  S
O76          C83   1.273       .  A
O76         Co81   2.017       .  S
O77          C84   1.297       .  A
O77         Co80   2.109       .  S
Co78         O82   2.046       .  S
Co79         O82   2.029       .  S
Co80         O82   2.007       .  S
Co81         O82   2.012   1_655  S
C83         C491   1.504       .  S
C84         C512   1.500       .  S
C85         C547   1.482       .  S
C86         C456   1.509       .  S
N87          C88   1.370   1_556  A
N87         C934   1.363       .  A
N87         N994   1.432       .  S
C88          C89   1.385       .  A
C88         C519   1.516       .  S
C89         C933   1.373   1_554  A
C89          H92   1.083       .  S
C90          C91   1.386       .  A
C90         C932   1.375       .  A
C90          H93   1.082       .  S
C91         N930   1.363       .  A
C91         C540   1.518       .  S
N94          C95   1.367   1_556  A
N94         C941   1.365       .  A
N94         N894   1.429       .  S
C95          C96   1.382       .  A
C95         C463   1.508       .  S
C96         C940   1.367   1_554  A
C96          H99   1.081       .  S
C97          C98   1.381       .  A
C97         C939   1.366       .  A
C97         H100   1.083       .  S
C98         N937   1.366       .  A
C98         C484   1.491       .  S
N101        C105   1.349       .  A
N101        C945   1.361       .  A
N101        N158   1.425       .  S
C102        N944   1.359   1_554  A
C102        C103   1.390       .  A
C102        C407   1.531       .  S
C103        C947   1.380   1_554  A
C103        H106   1.083       .  S
C104        C105   1.387       .  A
C104        C946   1.378       .  A
C104        H107   1.081       .  S
C105        C428   1.510       .  S
N108        C112   1.367       .  A
N108        C952   1.358       .  A
C109        N951   1.361   1_554  A
C109        C110   1.384       .  A
C109        C575   1.507       .  S
C110        C954   1.372   1_554  A
C110        H113   1.082       .  S
C111        C112   1.387       .  A
C111        C953   1.376       .  A
C111        H114   1.083       .  S
C112        C603   1.508       .  S
O115        C123   1.263       .  A
O115       Co135   2.002       .  S
O116        C124   1.274       .  A
O116       Co136   1.897       .  S
O117        C125   1.265       .  A
O117       Co137   2.009       .  S
O118        C126   1.298       .  A
O118       Co138   2.064       .  S
O119        C125   1.262       .  A
O119       Co136   1.990       .  S
O120        C126   1.273       .  A
O120       Co135   1.909       .  S
O121        C124   1.302       .  A
O121       Co138   2.076       .  S
O122        C123   1.269       .  A
O122       Co137   2.020       .  S
C123        C379   1.516       .  S
C124        C183   1.514       .  S
C125        C344   1.507       .  S
C126        C211   1.502       .  S
O127        C140   1.247       .  A
O127       Co135   1.974       .  S
O128        C141   1.276       .  A
O128       Co136   2.037       .  S
O129        C142   1.260       .  A
O129       Co137   1.957       .  S
O130        C143   1.253       .  A
O130       Co138   1.984       .  S
O131        C143   1.254       .  A
O131       Co136   1.987       .  S
O132        C142   1.271       .  A
O132       Co135   2.014       .  S
O133        C140   1.254       .  A
O133       Co138   2.004       .  S
O134        C141   1.260       .  A
O134       Co137   1.973       .  S
Co135       O139   1.941       .  S
Co136       O139   1.941       .  S
Co137       O139   2.081       .  S
Co138       O139   2.256       .  S
C140        C267   1.510       .  S
C141        C288   1.503       .  S
C142        C323   1.489       .  S
C143        C239   1.499       .  S
N144        C148   1.376       .  A
N144        C988   1.364       .  A
C145        N987   1.362   1_554  A
C145        C989   1.383       .  A
C145        C372   1.517       .  S
C146        C147   1.376       .  A
C146        C988   1.381       .  A
C146        H992   1.082       .  S
C147        C148   1.388       .  A
C147        H150   1.083       .  S
C148        C351   1.518       .  S
H149        C989   1.082       .  S
N151        C152   1.367       .  A
N151        C998   1.356       .  A
N151        N930   1.431       .  S
C152        C153   1.385       .  A
C152        C176   1.534       .  S
C153        C997   1.375       .  A
C153        H156   1.083       .  S
C154        C155   1.390   1_556  A
C154        C996   1.376       .  A
C154        H157   1.080   1_556  S
C155        N994   1.355   1_554  A
C155        C204   1.517       .  S
N158        C162   1.356       .  A
N158       C1002   1.359       .  A
C159       N1001   1.357   1_554  A
C159       C1003   1.388       .  A
C159        C316   1.519       .  S
C160        C161   1.378       .  A
C160       C1002   1.388       .  A
C160       H1006   1.083       .  S
C161        C162   1.386       .  A
C161        H164   1.082       .  S
C162        C295   1.519       .  S
H163       C1003   1.083       .  S
N165        C166   1.362       .  A
N165       C1012   1.359       .  A
C166        C167   1.389       .  A
C166        C232   1.513       .  S
C167        C168   1.375       .  A
C167        H170   1.083       .  S
C168       C1012   1.381       .  A
C168       H1014   1.082       .  S
C169       N1008   1.358   1_554  A
C169       C1011   1.381   1_554  A
C169        C260   1.510       .  S
H171       C1011   1.082   1_554  S
C172        C173   1.405       .  A
C172        C177   1.415       .  A
C172        C190   1.452       .  S
C173        C174   1.408       .  A
C173        C178   1.508       .  S
C174        C175   1.417       .  A
C174        C179   1.451       .  S
C175        C176   1.419       .  A
C175        C191   1.439       .  S
C176        C177   1.435       .  A
C177        C180   1.452       .  S
C178        C181   1.410       .  A
C178        C185   1.409       .  A
C179        N196   1.157       .  T
C180        N198   1.158       .  T
C181        C182   1.418       .  A
C181        C186   1.450       .  S
C182        C183   1.425       .  A
C182        C188   1.450       .  S
C183        C184   1.427       .  A
C184        C185   1.414       .  A
C184        C187   1.451       .  S
C185        C189   1.453       .  S
C186        N193   1.157       .  T
C187        N194   1.157       .  T
C188        N192   1.158       .  T
C189        N195   1.157       .  T
C190        N199   1.157       .  T
C191        N197   1.156       .  T
C200        C201   1.410       .  A
C200        C205   1.416       .  A
C200        C218   1.449       .  S
C201        C202   1.407       .  A
C201        C206   1.503       .  S
C202        C203   1.410       .  A
C202        C207   1.454       .  S
C203        C204   1.427       .  A
C203       C1062   1.447       .  S
C204        C205   1.421       .  A
C205        C208   1.450       .  S
C206        C209   1.411       .  A
C206        C213   1.409       .  A
C207        N224   1.157       .  T
C208        N226   1.157       .  T
C209        C210   1.415       .  A
C209        C214   1.452       .  S
C210        C211   1.420       .  A
C210        C216   1.451       .  S
C211        C212   1.422       .  A
C212        C213   1.413       .  A
C212        C215   1.451       .  S
C213        C217   1.452       .  S
C214        N221   1.157       .  T
C215        N222   1.157       .  T
C216        N220   1.158       .  T
C217        N223   1.157       .  T
C218        N227   1.157       .  T
C219       C1046   1.447       .  S
C219        N225   1.156       .  T
C228        C229   1.415       .  A
C228        C233   1.421       .  A
C228        C246   1.449       .  S
C229        C230   1.406       .  A
C229        C234   1.506       .  S
C230        C231   1.409       .  A
C230        C235   1.455       .  S
C231        C232   1.432       .  A
C231        C247   1.452       .  S
C232        C233   1.414       .  A
C233        C236   1.447       .  S
C234        C237   1.415       .  A
C234        C241   1.409       .  A
C235        N252   1.157       .  T
C236        N254   1.157       .  T
C237        C238   1.417       .  A
C237        C242   1.450       .  S
C238        C239   1.415       .  A
C238        C244   1.450       .  S
C239        C240   1.423       .  A
C240        C241   1.411       .  A
C240        C243   1.452       .  S
C241        C245   1.452       .  S
C242        N249   1.157       .  T
C243        N250   1.157       .  T
C244        N248   1.157       .  T
C245        N251   1.157       .  T
C246        N255   1.157       .  T
C247        N253   1.158       .  T
C256        C257   1.408       .  A
C256        C261   1.410       .  A
C256        C274   1.453       .  S
C257        C258   1.410       .  A
C257        C262   1.503       .  S
C258        C259   1.415       .  A
C258        C263   1.451       .  S
C259        C260   1.419       .  A
C259        C275   1.449       .  S
C260        C261   1.428       .  A
C261       C1107   1.453   1_554  S
C262        C265   1.409       .  A
C262        C269   1.408       .  A
C263        N280   1.157       .  T
C264       C1104   1.453       .  S
C264        N282   1.158       .  T
C265        C266   1.412       .  A
C265        C270   1.454       .  S
C266        C267   1.424       .  A
C266        C272   1.450       .  S
C267        C268   1.426       .  A
C268        C269   1.415       .  A
C268        C271   1.451       .  S
C269        C273   1.451       .  S
C270        N277   1.157       .  T
C271        N278   1.158       .  T
C272        N276   1.157       .  T
C273        N279   1.157       .  T
C274        N283   1.157       .  T
C275        N281   1.157       .  T
C284        C285   1.409       .  A
C284        C289   1.415       .  A
C284        C302   1.451       .  S
C285        C286   1.416       .  A
C285        C290   1.510       .  S
C286        C287   1.417       .  A
C286        C291   1.449       .  S
C287        C288   1.413       .  A
C287        C303   1.449       .  S
C288        C289   1.423       .  A
C289        C292   1.452       .  S
C290        C293   1.412       .  A
C290        C297   1.407       .  A
C291        N308   1.157       .  T
C292        N310   1.158       .  T
C293        C294   1.419       .  A
C293        C298   1.449       .  S
C294        C295   1.420       .  A
C294        C300   1.450       .  S
C295        C296   1.430       .  A
C296        C297   1.413       .  A
C296        C299   1.450       .  S
C297        C301   1.453       .  S
C298        N305   1.157       .  T
C299       N1149   1.158       .  T
C300        N304   1.157       .  T
C301        N307   1.157       .  T
C302        N311   1.157       .  T
C303        N309   1.157       .  T
N306       C1142   1.158       .  T
C312        C313   1.400       .  A
C312        C317   1.409       .  A
C312        C330   1.454       .  S
C313        C314   1.404       .  A
C313        C318   1.492       .  S
C314        C315   1.414       .  A
C314        C319   1.453       .  S
C315        C316   1.424       .  A
C315       C1174   1.445       .  S
C316        C317   1.436       .  A
C317        C320   1.451   1_554  S
C318        C321   1.410       .  A
C318        C325   1.408       .  A
C319        N336   1.157       .  T
C320        N338   1.158       .  T
C321        C322   1.412       .  A
C321        C326   1.450       .  S
C322        C323   1.417       .  A
C322        C328   1.450       .  S
C323        C324   1.418       .  A
C324        C325   1.405       .  A
C324        C327   1.453       .  S
C325        C329   1.452       .  S
C326        N333   1.157       .  T
C327        N334   1.157       .  T
C328        N332   1.157       .  T
C329        N335   1.157       .  T
C330        N339   1.157       .  T
C331       C1158   1.445       .  S
C331        N337   1.157       .  T
C340        C341   1.406       .  A
C340        C345   1.413       .  A
C340        C358   1.452       .  S
C341        C342   1.412       .  A
C341        C346   1.504       .  S
C342        C343   1.416       .  A
C342        C347   1.450       .  S
C343        C344   1.420       .  A
C343        C359   1.451       .  S
C344        C345   1.426       .  A
C345        C348   1.450       .  S
C346        C349   1.405       .  A
C346        C353   1.406       .  A
C347        N364   1.157       .  T
C348        N366   1.157       .  T
C349        C350   1.413       .  A
C349        C354   1.453       .  S
C350        C351   1.429       .  A
C350        C356   1.451       .  S
C351        C352   1.424       .  A
C352        C353   1.419       .  A
C352        C355   1.444       .  S
C353        C357   1.452       .  S
C354        N361   1.157       .  T
C355        N362   1.157       .  T
C356        N360   1.158       .  T
C357        N363   1.157       .  T
C358        N367   1.157       .  T
C359        N365   1.157       .  T
C368        C369   1.412       .  A
C368        C373   1.419       .  A
C368        C386   1.449       .  S
C369        C370   1.410       .  A
C369        C374   1.513       .  S
C370        C371   1.416       .  A
C370        C375   1.451       .  S
C371        C372   1.426       .  A
C371       C1230   1.451       .  S
C372        C373   1.419       .  A
C373        C376   1.450       .  S
C374        C377   1.411       .  A
C374        C381   1.412       .  A
C375        N392   1.157       .  T
C376        N394   1.157       .  T
C377        C378   1.418       .  A
C377        C382   1.450       .  S
C378        C379   1.423       .  A
C378        C384   1.451       .  S
C379        C380   1.421       .  A
C380        C381   1.417       .  A
C380        C383   1.448       .  S
C381        C385   1.451       .  S
C382        N389   1.157       .  T
C383        N390   1.157       .  T
C384        N388   1.158       .  T
C385        N391   1.157       .  T
C386        N395   1.157       .  T
C387       C1214   1.450       .  S
C387        N393   1.158       .  T
C396        C397   1.409       .  A
C396        C401   1.406       .  A
C396        C414   1.453       .  S
C397        C398   1.414       .  A
C397        C402   1.500       .  S
C398        C399   1.415       .  A
C398        C403   1.449       .  S
C399        C400   1.412       .  A
C399        C415   1.450   1_655  S
C400        C401   1.419       .  A
C401        C404   1.454       .  S
C402        C405   1.405       .  A
C402        C409   1.402       .  A
C403        N420   1.157       .  T
C404        N422   1.157       .  T
C405        C406   1.417       .  A
C405        C410   1.453       .  S
C406        C407   1.427       .  A
C406        C412   1.444       .  S
C407        C408   1.438       .  A
C408        C409   1.411       .  A
C408        C411   1.451       .  S
C409        C413   1.455       .  S
C410        N417   1.157       .  T
C411        N418   1.157   1_554  T
C412        N416   1.157       .  T
C413        N419   1.157       .  T
C414        N423   1.157       .  T
C415        N421   1.157       .  T
C424        C425   1.411       .  A
C424        C429   1.414       .  A
C424        C442   1.449       .  S
C425        C426   1.405       .  A
C425        C430   1.499       .  S
C426        C427   1.409       .  A
C426        C431   1.453       .  S
C427        C428   1.429       .  A
C427        C443   1.451       .  S
C428        C429   1.417       .  A
C429        C432   1.450       .  S
C430        C433   1.407       .  A
C430        C437   1.411       .  A
C431        N448   1.157       .  T
C432        N450   1.157       .  T
C433        C434   1.414       .  A
C433        C438   1.452       .  S
C434        C435   1.427       .  A
C434        C440   1.450       .  S
C435        C436   1.420       .  A
C436        C437   1.410       .  A
C436        C439   1.452       .  S
C437        C441   1.451       .  S
C438        N445   1.157       .  T
C439        N446   1.157   1_655  T
C440        N444   1.157       .  T
C441        N447   1.157       .  T
C442        N451   1.157       .  T
C443        N449   1.158       .  T
C452        C453   1.411       .  A
C452        C457   1.407       .  A
C452        C470   1.455       .  S
C453        C454   1.413       .  A
C453        C458   1.508       .  S
C454        C455   1.423       .  A
C454        C459   1.449       .  S
C455        C456   1.422       .  A
C455        C471   1.448       .  S
C456        C457   1.419       .  A
C457        C460   1.446       .  S
C458        C461   1.411       .  A
C458        C465   1.411       .  A
C459        N476   1.157       .  T
C460        N478   1.154       .  T
C461        C462   1.416       .  A
C461        C466   1.449       .  S
C462        C463   1.418       .  A
C462        C468   1.448       .  S
C463        C464   1.418       .  A
C464        C465   1.413       .  A
C464        C467   1.450       .  S
C465        C469   1.450       .  S
C466        N473   1.157       .  T
C467        N474   1.157       .  T
C468        N472   1.158       .  T
C469        N475   1.157       .  T
C470        N479   1.157       .  T
C471        N477   1.158   1_655  T
C480        C481   1.414       .  A
C480        C485   1.417       .  A
C480        C498   1.448       .  S
C481        C482   1.412       .  A
C481        C486   1.504       .  S
C482        C483   1.409       .  A
C482        C487   1.454       .  S
C483        C484   1.416       .  A
C483       C1342   1.450       .  S
C484        C485   1.412       .  A
C485        C488   1.448       .  S
C486        C489   1.411       .  A
C486        C493   1.408       .  A
C487        N504   1.157       .  T
C488        N506   1.156       .  T
C489        C490   1.414       .  A
C489        C494   1.452       .  S
C490        C491   1.423       .  A
C490        C496   1.451       .  S
C491        C492   1.418       .  A
C492        C493   1.413       .  A
C492        C495   1.446       .  S
C493        C497   1.449       .  S
C494        N501   1.157       .  T
C495        N502   1.156       .  T
C496        N500   1.157       .  T
C497        N503   1.157       .  T
C498        N507   1.157       .  T
C499       C1326   1.450       .  S
C499        N505   1.157       .  T
C508        C509   1.413       .  A
C508        C513   1.414       .  A
C508        C526   1.450       .  S
C509        C510   1.415       .  A
C509        C514   1.511       .  S
C510        C511   1.416       .  A
C510        C515   1.450       .  S
C511        C512   1.415       .  A
C511        C527   1.450       .  S
C512        C513   1.416       .  A
C513        C516   1.448       .  S
C514        C517   1.414       .  A
C514        C521   1.408       .  A
C515        N532   1.157       .  T
C516        N534   1.157       .  T
C517        C518   1.422       .  A
C517        C522   1.449       .  S
C518        C519   1.417       .  A
C518        C524   1.446       .  S
C519        C520   1.429       .  A
C520        C521   1.411       .  A
C520        C523   1.450       .  S
C521        C525   1.455       .  S
C522        N529   1.157       .  T
C523       N1373   1.157   1_554  T
C524        N528   1.157       .  T
C525        N531   1.157       .  T
C526        N535   1.157       .  T
C527        N533   1.157       .  T
N530       C1366   1.156       .  T
C536        C537   1.406       .  A
C536        C541   1.414       .  A
C536        C554   1.453       .  S
C537        C538   1.407       .  A
C537        C542   1.503       .  S
C538        C539   1.416       .  A
C538        C543   1.453       .  S
C539        C540   1.429       .  A
C539       C1398   1.450       .  S
C540        C541   1.426       .  A
C541        C544   1.449       .  S
C542        C545   1.414       .  A
C542        C549   1.412       .  A
C543        N560   1.157       .  T
C544        N562   1.157       .  T
C545        C546   1.417       .  A
C545        C550   1.449       .  S
C546        C547   1.412       .  A
C546        C552   1.449       .  S
C547        C548   1.410       .  A
C548        C549   1.406       .  A
C548        C551   1.452       .  S
C549        C553   1.449       .  S
C550        N557   1.157       .  T
C551        N558   1.157       .  T
C552        N556   1.157       .  T
C553        N559   1.156       .  T
C554        N563   1.157       .  T
C555       C1382   1.450       .  S
C555        N561   1.158       .  T
C564        C565   1.409       .  A
C564        C569   1.409       .  A
C564        C582   1.452       .  S
C565        C566   1.408       .  A
C565        C570   1.497       .  S
C566        C567   1.414       .  A
C566        C571   1.452       .  S
C567        C568   1.423       .  A
C567        C583   1.448       .  S
C568        C569   1.418       .  A
C569        C572   1.448       .  S
C570        C573   1.408       .  A
C570        C577   1.408       .  A
C571        N588   1.157       .  T
C572        N590   1.157       .  T
C573        C574   1.410       .  A
C573        C578   1.451       .  S
C574        C575   1.420       .  A
C574        C580   1.451       .  S
C575        C576   1.425       .  A
C576        C577   1.412       .  A
C576        C579   1.451       .  S
C577        C581   1.453       .  S
C578        N585   1.157       .  T
C579       N1429   1.158   1_554  T
C580        N584   1.157       .  T
C581        N587   1.157       .  T
C582        N591   1.157       .  T
C583        N589   1.157       .  T
N586       C1422   1.158       .  T
C592        C593   1.410       .  A
C592        C597   1.413       .  A
C592        C610   1.451       .  S
C593        C594   1.412       .  A
C593        C598   1.504       .  S
C594        C595   1.416       .  A
C594        C599   1.450       .  S
C595        C596   1.414       .  A
C595        C611   1.447       .  S
C596        C597   1.417       .  A
C597        C600   1.449       .  S
C598        C601   1.414       .  A
C598        C605   1.406       .  A
C599        N616   1.157       .  T
C600        N618   1.157       .  T
C601        C602   1.420       .  A
C601        C606   1.448       .  S
C602        C603   1.411       .  A
C602        C608   1.448       .  S
C603        C604   1.427       .  A
C604        C605   1.409       .  A
C604        C607   1.452       .  S
C605        C609   1.453       .  S
C606        N613   1.157       .  T
C607       N1457   1.158       .  T
C608        N612   1.157       .  T
C609        N615   1.157       .  T
C610        N619   1.157       .  T
C611        N617   1.156       .  T
N614       C1450   1.158       .  T
C620        C621   1.407       .  A
C620        C625   1.414       .  A
C620        C638   1.451       .  S
C621        C622   1.410       .  A
C621        C626   1.498       .  S
C622        C623   1.411       .  A
C622        C627   1.452       .  S
C623        C624   1.414       .  A
C623        C639   1.445       .  S
C624        C625   1.425       .  A
C625        C628   1.451       .  S
C626        C629   1.408       .  A
C626        C633   1.407       .  A
C627        N644   1.157       .  T
C628        N646   1.157       .  T
C629        C630   1.413       .  A
C629        C634   1.449       .  S
C630        C631   1.418       .  A
C630        C636   1.450       .  S
C631        C632   1.426       .  A
C632        C633   1.410       .  A
C632        C635   1.451       .  S
C633        C637   1.453       .  S
C634        N641   1.157       .  T
C635        N642   1.158   1_554  T
C636        N640   1.157       .  T
C637        N643   1.157       .  T
C638        N647   1.157       .  T
C639        N645   1.155       .  T
C648        C649   1.410       .  A
C648        C653   1.405       .  A
C648        C666   1.455       .  S
C649        C650   1.414       .  A
C649        C654   1.499       .  S
C650        C651   1.419       .  A
C650        C655   1.448       .  S
C651        C652   1.414       .  A
C651        C667   1.448       .  S
C652        C653   1.419       .  A
C653        C656   1.451       .  S
C654        C657   1.409       .  A
C654        C661   1.411       .  A
C655        N672   1.157       .  T
C656       N1517   1.158       .  T
C657        C658   1.409       .  A
C657        C662   1.447       .  S
C658        C659   1.419       .  A
C658        C664   1.452       .  S
C659        C660   1.419       .  A
C660        C661   1.412       .  A
C660        C663   1.451       .  S
C661        C665   1.451       .  S
C662        N669   1.157       .  T
C663        N670   1.157       .  T
C664        N668   1.157       .  T
C665        N671   1.157       .  T
C666        N675   1.157       .  T
C667        N673   1.157       .  T
N674       C1499   1.158       .  T
C676        C677   1.412       .  A
C676        C681   1.417       .  A
C676        C694   1.450       .  S
C677        C678   1.407       .  A
C677        C682   1.507       .  S
C678        C679   1.413       .  A
C678        C683   1.454       .  S
C679        C680   1.424       .  A
C679       C1538   1.446       .  S
C680        C681   1.421       .  A
C680        C891   1.513       .  S
C681        C684   1.450       .  S
C682        C685   1.415       .  A
C682        C689   1.411       .  A
C683        N700   1.157       .  T
C684        N702   1.157       .  T
C685        C686   1.418       .  A
C685        C690   1.450       .  S
C686        C687   1.415       .  A
C686        C692   1.449       .  S
C687        C688   1.415       .  A
C688        C689   1.411       .  A
C688        C691   1.447       .  S
C689        C693   1.453       .  S
C690        N697   1.157       .  T
C691        N698   1.155       .  T
C692        N696   1.157       .  T
C693        N699   1.157       .  T
C694        N703   1.157       .  T
C695       C1522   1.443       .  S
C695        N701   1.155       .  T
C704        C705   1.409       .  A
C704        C709   1.418       .  A
C704        C722   1.451       .  S
C705        C706   1.407       .  A
C705        C710   1.508       .  S
C706        C707   1.417       .  A
C706        C711   1.453       .  S
C707        C708   1.422       .  A
C707        C723   1.444       .  S
C708        C709   1.424       .  A
C709        C712   1.450       .  S
C710        C713   1.404       .  A
C710        C717   1.407       .  A
C711        N728   1.157       .  T
C712        N730   1.157       .  T
C713        C714   1.413       .  A
C713        C718   1.454       .  S
C714        C715   1.439       .  A
C714        C720   1.453       .  S
C715        C716   1.426       .  A
C716        C717   1.423       .  A
C716        C719   1.445       .  S
C717        C721   1.451       .  S
C718        N725   1.157       .  T
C719        N726   1.157       .  T
C720       N1567   1.158       .  T
C721        N727   1.157       .  T
C722        N731   1.157       .  T
C723        N729   1.156       .  T
N724       C1563   1.158       .  T
C732        C733   1.412       .  A
C732        C737   1.410       .  A
C732        C750   1.451       .  S
C733        C734   1.412       .  A
C733        C738   1.508       .  S
C734        C735   1.416       .  A
C734        C739   1.451       .  S
C735        C736   1.420       .  A
C735        C751   1.447       .  S
C736        C737   1.419       .  A
C737        C740   1.452       .  S
C738        C741   1.417       .  A
C738        C745   1.414       .  A
C739        N756   1.157       .  T
C740        N758   1.157       .  T
C741        C742   1.409   1_565  A
C741        C746   1.452       .  S
C742        C743   1.414   1_545  A
C742        C748   1.451       .  S
C743        C744   1.417       .  A
C744        C745   1.416       .  A
C744        C747   1.450       .  S
C745        C749   1.450       .  S
C746        N753   1.157       .  T
C747        N754   1.157       .  T
C748        N752   1.157       .  T
C749        N755   1.157       .  T
C750        N759   1.157       .  T
C751        N757   1.158       .  T
C760        C761   1.407       .  A
C760        C765   1.416       .  A
C760        C778   1.449       .  S
C761        C762   1.403       .  A
C761        C766   1.501       .  S
C762        C763   1.409       .  A
C762        C767   1.454   1_565  S
C763        C764   1.424       .  A
C763        C779   1.445       .  S
C764        C765   1.421       .  A
C765        C768   1.449       .  S
C766        C769   1.408   1_565  A
C766        C773   1.412       .  A
C767        N784   1.157       .  T
C768        N786   1.156       .  T
C769        C770   1.419       .  A
C769        C774   1.449       .  S
C770        C771   1.424       .  A
C770        C776   1.450       .  S
C771        C772   1.421   1_545  A
C772        C773   1.407       .  A
C772        C775   1.451       .  S
C773        C777   1.455       .  S
C774        N781   1.157       .  T
C775        N782   1.156       .  T
C776        N780   1.157       .  T
C777        N783   1.157       .  T
C778        N787   1.157       .  T
C779       N1628   1.156       .  T
N785       C1622   1.156       .  T
C788        C789   1.416       .  A
C788        C793   1.422       .  A
C788        C806   1.450       .  S
C789        C790   1.407       .  A
C789        C794   1.514       .  S
C790        C791   1.413   1_565  A
C790        C795   1.454       .  S
C791        C792   1.433       .  A
C791        C807   1.451       .  S
C792        C793   1.421   1_545  A
C793        C796   1.450       .  S
C794        C797   1.414       .  A
C794        C801   1.413       .  A
C795        N812   1.157       .  T
C796        N814   1.157       .  T
C797        C798   1.415       .  A
C797        C802   1.452       .  S
C798        C799   1.420       .  A
C798        C804   1.450       .  S
C799        C800   1.417       .  A
C800        C801   1.418       .  A
C800        C803   1.446       .  S
C801        C805   1.450       .  S
C802        N809   1.157       .  T
C803        N810   1.156       .  T
C804       N1651   1.157       .  T
C805        N811   1.157       .  T
C806        N815   1.157       .  T
C807        N813   1.157       .  T
N808       C1647   1.157       .  T
C816        C817   1.418       .  A
C816        C821   1.422       .  A
C816        C834   1.450       .  S
C817        C818   1.414       .  A
C817        C822   1.523       .  S
C818        C819   1.415       .  A
C818        C823   1.451       .  S
C819        C820   1.420       .  A
C819       C1678   1.449       .  S
C820        C821   1.414       .  A
C821        C824   1.444       .  S
C822        C825   1.418       .  A
C822        C829   1.413       .  A
C823        N840   1.157       .  T
C824        N842   1.157       .  T
C825        C826   1.423       .  A
C825        C830   1.450       .  S
C826        C827   1.419       .  A
C826        C832   1.449       .  S
C827        C828   1.426   1_565  A
C828        C829   1.418   1_545  A
C828        C831   1.452       .  S
C829        C833   1.453       .  S
C830        N837   1.157       .  T
C831        N838   1.158       .  T
C832        N836   1.157       .  T
C833        N839   1.157   1_565  T
C834        N843   1.157       .  T
C835       C1662   1.448       .  S
C835        N841   1.157       .  T
N844        C848   1.379       .  A
N844       C1663   1.462       .  S
C845        C846   1.373       .  A
C845       C1642   1.502       .  S
C846        C847   1.365       .  A
C846        H849   1.082       .  S
C847        H850   1.078       .  S
C848       N1008   1.458       .  S
N851        C855   1.369       .  A
N851        N951   1.431       .  S
C852        C853   1.383       .  A
C852       C1579   1.512       .  S
C853        H856   1.082       .  S
C854        C855   1.380       .  A
C854        H857   1.081       .  S
C855       C1607   1.496       .  S
O858        C866   1.262       .  A
O858       Co878   1.977       .  S
O859        C867   1.262       .  A
O859       Co879   2.034       .  S
O860        C868   1.257       .  A
O860       Co880   2.002       .  S
O861        C869   1.269       .  A
O861       Co881   2.000       .  S
O862        C868   1.248       .  A
O862       Co879   1.973       .  S
O863        C869   1.266       .  A
O863       Co878   1.987       .  S
O864        C867   1.237       .  A
O864       Co881   1.947       .  S
O865        C866   1.279       .  A
O865       Co880   2.050       .  S
C866       C1670   1.514   1_545  S
C867       C1467   1.493       .  S
C868       C1635   1.518       .  S
C869       C1502   1.496       .  S
O870        C883   1.271       .  A
O870       Co878   2.021       .  S
O871        C884   1.306       .  A
O871       Co879   2.088       .  S
O872        C885   1.257       .  A
O872       Co880   1.991       .  S
O873        C886   1.269       .  A
O873       Co881   1.915       .  S
O874        C886   1.295       .  A
O874       Co879   2.080       .  S
O875        C885   1.268       .  A
O875       Co878   2.024       .  S
O876        C883   1.269       .  A
O876       Co881   2.002       .  S
O877        C884   1.277   1_565  A
O877       Co880   1.893   1_565  S
Co878       O882   2.080       .  S
Co879       O882   2.250       .  S
Co880       O882   1.944       .  S
Co881       O882   1.940       .  S
C883       C1551   1.511       .  S
C884       C1586   1.490   1_545  S
C885       C1614   1.502       .  S
C886       C1530   1.499       .  S
N887        C891   1.358   1_556  A
N887        C888   1.365       .  A
N887        N987   1.431       .  S
C888        C889   1.388       .  A
C888       C1558   1.539       .  S
C889        C890   1.376       .  A
C889        H892   1.083       .  S
C890        C891   1.382   1_556  A
N894        C895   1.368       .  A
C895        C896   1.387       .  A
C895       C1495   1.508       .  S
C896        H899   1.083       .  S
C897        C898   1.383       .  A
C897        H900   1.082       .  S
C898       C1474   1.506       .  S
O901        C909   1.286       .  A
O901       Co921   2.058       .  S
O902        C910   1.272       .  A
O902       Co922   2.036       .  S
O903        C911   1.257       .  A
O903       Co923   1.896       .  S
O904        C912   1.257       .  A
O904       Co924   1.960       .  S
O905        C911   1.293       .  A
O905       Co922   2.106       .  S
O906        C912   1.264       .  A
O906       Co921   2.003   1_655  S
O907        C910   1.253       .  A
O907       Co924   1.958   1_455  S
O908        C909   1.267       .  A
O908       Co923   1.970       .  S
C909       C1439   1.499       .  S
C910       C1243   1.491   1_455  S
C911       C1411   1.492       .  S
C912       C1278   1.510       .  S
O913        C926   1.270       .  A
O913       Co921   1.974   1_655  S
O914        C927   1.273       .  A
O914       Co922   1.911       .  S
O915        C928   1.256       .  A
O915       Co923   1.996       .  S
O916        C929   1.275       .  A
O916       Co924   2.018       .  S
O917        C929   1.270   1_455  A
O917       Co922   1.985       .  S
O918        C928   1.255       .  A
O918       Co921   1.985       .  S
O919        C926   1.276       .  A
O919       Co924   2.020       .  S
O920        C927   1.295       .  A
O920       Co923   2.095       .  S
Co921       O925   2.041       .  S
Co922       O925   2.032       .  S
Co923       O925   2.007       .  S
Co924       O925   2.018   1_655  S
C926       C1334   1.509       .  S
C927       C1355   1.504       .  S
C928       C1390   1.480       .  S
C929       C1299   1.498       .  S
N930        C931   1.370       .  A
C931        C932   1.385       .  A
C931       C1362   1.519       .  S
C932        H935   1.083       .  S
C933        C934   1.385       .  A
C933        H936   1.081       .  S
C934       C1383   1.514       .  S
N937        C938   1.365       .  A
C938        C939   1.383       .  A
C938       C1306   1.501       .  S
C939        H942   1.082       .  S
C940        C941   1.382       .  A
C940        H943   1.083       .  S
C941       C1327   1.495       .  S
N944        C948   1.349       .  A
N944       N1001   1.422       .  S
C945        C946   1.388       .  A
C945       C1250   1.533       .  S
C946        H949   1.083       .  S
C947        C948   1.384       .  A
C947        H950   1.081       .  S
C948       C1271   1.507       .  S
N951        C955   1.369       .  A
C952        C953   1.382       .  A
C952       C1418   1.503       .  S
C953        H956   1.082       .  S
C954        C955   1.384       .  A
C954        H957   1.083       .  S
C955       C1446   1.503       .  S
O958        C966   1.263       .  A
O958       Co978   2.005       .  S
O959        C967   1.274       .  A
O959       Co979   1.900       .  S
O960        C968   1.267       .  A
O960       Co980   2.018       .  S
O961        C969   1.297       .  A
O961       Co981   2.057       .  S
O962        C968   1.260       .  A
O962       Co979   1.988       .  S
O963        C969   1.275       .  A
O963       Co978   1.906       .  S
O964        C967   1.300       .  A
O964       Co981   2.072       .  S
O965        C966   1.267       .  A
O965       Co980   2.018       .  S
C966       C1222   1.522       .  S
C967       C1026   1.512       .  S
C968       C1187   1.500       .  S
C969       C1054   1.497       .  S
O970        C983   1.249       .  A
O970       Co978   1.979       .  S
O971        C984   1.274       .  A
O971       Co979   2.039       .  S
O972        C985   1.257       .  A
O972       Co980   1.947       .  S
O973        C986   1.254       .  A
O973       Co981   1.991       .  S
O974        C986   1.255       .  A
O974       Co979   1.987       .  S
O975        C985   1.274       .  A
O975       Co978   2.021       .  S
O976        C983   1.253       .  A
O976       Co981   1.999       .  S
O977        C984   1.253       .  A
O977       Co980   1.961       .  S
Co978       O982   1.949       .  S
Co979       O982   1.946       .  S
Co980       O982   2.077       .  S
Co981       O982   2.249       .  S
C983       C1110   1.516       .  S
C984       C1131   1.498       .  S
C985       C1166   1.493       .  S
C986       C1082   1.498       .  S
N987        C991   1.372       .  A
C988       C1215   1.515       .  S
C989        C990   1.375   1_554  A
C990        C991   1.387       .  A
C990        H993   1.083       .  S
C991       C1194   1.516       .  S
N994        C995   1.366       .  A
C995        C996   1.384       .  A
C995       C1019   1.534       .  S
C996        H999   1.083       .  S
C997        C998   1.387       .  A
C997       H1000   1.081       .  S
C998       C1047   1.513       .  S
N1001      C1005   1.353       .  A
C1002      C1159   1.516       .  S
C1003      C1004   1.378   1_554  A
C1004      C1005   1.386       .  A
C1004      H1007   1.081       .  S
C1005      C1138   1.515       .  S
N1008      C1009   1.363       .  A
C1009      C1010   1.389       .  A
C1009      C1075   1.515       .  S
C1010      C1011   1.375       .  A
C1010      H1013   1.083       .  S
C1012      C1103   1.510       .  S
C1015      C1016   1.405       .  A
C1015      C1020   1.416       .  A
C1015      C1033   1.453       .  S
C1016      C1017   1.407       .  A
C1016      C1021   1.506       .  S
C1017      C1018   1.415       .  A
C1017      C1022   1.452       .  S
C1018      C1019   1.419       .  A
C1018      C1034   1.438       .  S
C1019      C1020   1.438       .  A
C1020      C1023   1.452       .  S
C1021      C1024   1.409       .  A
C1021      C1028   1.409       .  A
C1022      N1039   1.157       .  T
C1023      N1041   1.158       .  T
C1024      C1025   1.416       .  A
C1024      C1029   1.451       .  S
C1025      C1026   1.424       .  A
C1025      C1031   1.451       .  S
C1026      C1027   1.427       .  A
C1027      C1028   1.414       .  A
C1027      C1030   1.452       .  S
C1028      C1032   1.453       .  S
C1029      N1036   1.157       .  T
C1030      N1037   1.157       .  T
C1031      N1035   1.158       .  T
C1032      N1038   1.157       .  T
C1033      N1042   1.157       .  T
C1034      N1040   1.156       .  T
C1043      C1044   1.409       .  A
C1043      C1048   1.415       .  A
C1043      C1061   1.449       .  S
C1044      C1045   1.407       .  A
C1044      C1049   1.501       .  S
C1045      C1046   1.410       .  A
C1045      C1050   1.453       .  S
C1046      C1047   1.425       .  A
C1047      C1048   1.420       .  A
C1048      C1051   1.450       .  S
C1049      C1052   1.411       .  A
C1049      C1056   1.409       .  A
C1050      N1067   1.157       .  T
C1051      N1069   1.157       .  T
C1052      C1053   1.413       .  A
C1052      C1057   1.451       .  S
C1053      C1054   1.418       .  A
C1053      C1059   1.451       .  S
C1054      C1055   1.421       .  A
C1055      C1056   1.412       .  A
C1055      C1058   1.451       .  S
C1056      C1060   1.452       .  S
C1057      N1064   1.157       .  T
C1058      N1065   1.158       .  T
C1059      N1063   1.158       .  T
C1060      N1066   1.157       .  T
C1061      N1070   1.157       .  T
C1062      N1068   1.156       .  T
C1071      C1072   1.414       .  A
C1071      C1076   1.420       .  A
C1071      C1089   1.449       .  S
C1072      C1073   1.406       .  A
C1072      C1077   1.507       .  S
C1073      C1074   1.411       .  A
C1073      C1078   1.455       .  S
C1074      C1075   1.433       .  A
C1074      C1090   1.453       .  S
C1075      C1076   1.413       .  A
C1076      C1079   1.445       .  S
C1077      C1080   1.415       .  A
C1077      C1084   1.410       .  A
C1078      N1095   1.157       .  T
C1079      N1097   1.156       .  T
C1080      C1081   1.418       .  A
C1080      C1085   1.449       .  S
C1081      C1082   1.414       .  A
C1081      C1087   1.450       .  S
C1082      C1083   1.421       .  A
C1083      C1084   1.412       .  A
C1083      C1086   1.451       .  S
C1084      C1088   1.452       .  S
C1085      N1092   1.157       .  T
C1086      N1093   1.157       .  T
C1087      N1091   1.157       .  T
C1088      N1094   1.157       .  T
C1089      N1098   1.157       .  T
C1090      N1096   1.158       .  T
C1099      C1100   1.408       .  A
C1099      C1104   1.412       .  A
C1099      C1117   1.453       .  S
C1100      C1101   1.409       .  A
C1100      C1105   1.503       .  S
C1101      C1102   1.414       .  A
C1101      C1106   1.451       .  S
C1102      C1103   1.418       .  A
C1102      C1118   1.449       .  S
C1103      C1104   1.428       .  A
C1105      C1108   1.407       .  A
C1105      C1112   1.407       .  A
C1106      N1123   1.157       .  T
C1107      N1125   1.158       .  T
C1108      C1109   1.413       .  A
C1108      C1113   1.454       .  S
C1109      C1110   1.426       .  A
C1109      C1115   1.448       .  S
C1110      C1111   1.429       .  A
C1111      C1112   1.415       .  A
C1111      C1114   1.451       .  S
C1112      C1116   1.452       .  S
C1113      N1120   1.157       .  T
C1114      N1121   1.158       .  T
C1115      N1119   1.156       .  T
C1116      N1122   1.157       .  T
C1117      N1126   1.157       .  T
C1118      N1124   1.157       .  T
C1127      C1128   1.409       .  A
C1127      C1132   1.413       .  A
C1127      C1145   1.452       .  S
C1128      C1129   1.417       .  A
C1128      C1133   1.506       .  S
C1129      C1130   1.414       .  A
C1129      C1134   1.448       .  S
C1130      C1131   1.410       .  A
C1130      C1146   1.450       .  S
C1131      C1132   1.425       .  A
C1132      C1135   1.453       .  S
C1133      C1136   1.413       .  A
C1133      C1140   1.407       .  A
C1134      N1151   1.156       .  T
C1135      N1153   1.158       .  T
C1136      C1137   1.417       .  A
C1136      C1141   1.449       .  S
C1137      C1138   1.418       .  A
C1137      C1143   1.450       .  S
C1138      C1139   1.430       .  A
C1139      C1140   1.410       .  A
C1139      C1142   1.451       .  S
C1140      C1144   1.454       .  S
C1141      N1148   1.157       .  T
C1143      N1147   1.157       .  T
C1144      N1150   1.157       .  T
C1145      N1154   1.157       .  T
C1146      N1152   1.157       .  T
C1155      C1156   1.400       .  A
C1155      C1160   1.409       .  A
C1155      C1173   1.454       .  S
C1156      C1157   1.406       .  A
C1156      C1161   1.492       .  S
C1157      C1158   1.414       .  A
C1157      C1162   1.453       .  S
C1158      C1159   1.421       .  A
C1159      C1160   1.436       .  A
C1160      C1163   1.451       .  S
C1161      C1164   1.409       .  A
C1161      C1168   1.407       .  A
C1162      N1179   1.157       .  T
C1163      N1181   1.158       .  T
C1164      C1165   1.413       .  A
C1164      C1169   1.449       .  S
C1165      C1166   1.418       .  A
C1165      C1171   1.449       .  S
C1166      C1167   1.422       .  A
C1167      C1168   1.405       .  A
C1167      C1170   1.453       .  S
C1168      C1172   1.453       .  S
C1169      N1176   1.157       .  T
C1170      N1177   1.158       .  T
C1171      N1175   1.157       .  T
C1172      N1178   1.157       .  T
C1173      N1182   1.157       .  T
C1174      N1180   1.158       .  T
C1183      C1184   1.408       .  A
C1183      C1188   1.413       .  A
C1183      C1201   1.452       .  S
C1184      C1185   1.412       .  A
C1184      C1189   1.504       .  S
C1185      C1186   1.415       .  A
C1185      C1190   1.450       .  S
C1186      C1187   1.417       .  A
C1186      C1202   1.451       .  S
C1187      C1188   1.422       .  A
C1188      C1191   1.450       .  S
C1189      C1192   1.405       .  A
C1189      C1196   1.407       .  A
C1190      N1207   1.157       .  T
C1191      N1209   1.157       .  T
C1192      C1193   1.412       .  A
C1192      C1197   1.453       .  S
C1193      C1194   1.431       .  A
C1193      C1199   1.452       .  S
C1194      C1195   1.421       .  A
C1195      C1196   1.418       .  A
C1195      C1198   1.444       .  S
C1196      C1200   1.452       .  S
C1197      N1204   1.157       .  T
C1198      N1205   1.157       .  T
C1199      N1203   1.158   1_556  T
C1200      N1206   1.157       .  T
C1201      N1210   1.157       .  T
C1202      N1208   1.157       .  T
C1211      C1212   1.413       .  A
C1211      C1216   1.420       .  A
C1211      C1229   1.449       .  S
C1212      C1213   1.412       .  A
C1212      C1217   1.517       .  S
C1213      C1214   1.415       .  A
C1213      C1218   1.450       .  S
C1214      C1215   1.423       .  A
C1215      C1216   1.418       .  A
C1216      C1219   1.449       .  S
C1217      C1220   1.410       .  A
C1217      C1224   1.414       .  A
C1218      N1235   1.156       .  T
C1219      N1237   1.157       .  T
C1220      C1221   1.419       .  A
C1220      C1225   1.450       .  S
C1221      C1222   1.426       .  A
C1221      C1227   1.451       .  S
C1222      C1223   1.422       .  A
C1223      C1224   1.420       .  A
C1223      C1226   1.449       .  S
C1224      C1228   1.451       .  S
C1225      N1232   1.157       .  T
C1226      N1233   1.157       .  T
C1227      N1231   1.158       .  T
C1228      N1234   1.157       .  T
C1229      N1238   1.157       .  T
C1230      N1236   1.158   1_554  T
C1239      C1240   1.410       .  A
C1239      C1244   1.409       .  A
C1239      C1257   1.453       .  S
C1240      C1241   1.416       .  A
C1240      C1245   1.506       .  S
C1241      C1242   1.417       .  A
C1241      C1246   1.449       .  S
C1242      C1243   1.412       .  A
C1242      C1258   1.450   1_655  S
C1243      C1244   1.421       .  A
C1244      C1247   1.454       .  S
C1245      C1248   1.409       .  A
C1245      C1252   1.404       .  A
C1246      N1263   1.157       .  T
C1247      N1265   1.157       .  T
C1248      C1249   1.420       .  A
C1248      C1253   1.452       .  S
C1249      C1250   1.424       .  A
C1249      C1255   1.445       .  S
C1250      C1251   1.436       .  A
C1251      C1252   1.412       .  A
C1251      C1254   1.451       .  S
C1252      C1256   1.454       .  S
C1253      N1260   1.157       .  T
C1254      N1261   1.158       .  T
C1255      N1259   1.157       .  T
C1256      N1262   1.157       .  T
C1257      N1266   1.157       .  T
C1258      N1264   1.157       .  T
C1267      C1268   1.409       .  A
C1267      C1272   1.414       .  A
C1267      C1285   1.449       .  S
C1268      C1269   1.405       .  A
C1268      C1273   1.496       .  S
C1269      C1270   1.408       .  A
C1269      C1274   1.454       .  S
C1270      C1271   1.428       .  A
C1270      C1286   1.451       .  S
C1271      C1272   1.418       .  A
C1272      C1275   1.450       .  S
C1273      C1276   1.407       .  A
C1273      C1280   1.406       .  A
C1274      N1291   1.157       .  T
C1275      N1293   1.157       .  T
C1276      C1277   1.414       .  A
C1276      C1281   1.451       .  S
C1277      C1278   1.426       .  A
C1277      C1283   1.451       .  S
C1278      C1279   1.428       .  A
C1279      C1280   1.408       .  A
C1279      C1282   1.453       .  S
C1280      C1284   1.452       .  S
C1281      N1288   1.157       .  T
C1282      N1289   1.158       .  T
C1283      N1287   1.158       .  T
C1284      N1290   1.157       .  T
C1285      N1294   1.157       .  T
C1286      N1292   1.158       .  T
C1295      C1296   1.410       .  A
C1295      C1300   1.407       .  A
C1295      C1313   1.455       .  S
C1296      C1297   1.410       .  A
C1296      C1301   1.499       .  S
C1297      C1298   1.418       .  A
C1297      C1302   1.449       .  S
C1298      C1299   1.417       .  A
C1298      C1314   1.447       .  S
C1299      C1300   1.419       .  A
C1300      C1303   1.449       .  S
C1301      C1304   1.410       .  A
C1301      C1308   1.410       .  A
C1302      N1319   1.157       .  T
C1303      N1321   1.156       .  T
C1304      C1305   1.412       .  A
C1304      C1309   1.450       .  S
C1305      C1306   1.417       .  A
C1305      C1311   1.448       .  S
C1306      C1307   1.417       .  A
C1307      C1308   1.410       .  A
C1307      C1310   1.450       .  S
C1308      C1312   1.450       .  S
C1309      N1316   1.157       .  T
C1310      N1317   1.157       .  T
C1311      N1315   1.158       .  T
C1312      N1318   1.157       .  T
C1313      N1322   1.157       .  T
C1314      N1320   1.156   1_655  T
C1323      C1324   1.415       .  A
C1323      C1328   1.415       .  A
C1323      C1341   1.449       .  S
C1324      C1325   1.414       .  A
C1324      C1329   1.508       .  S
C1325      C1326   1.412       .  A
C1325      C1330   1.454       .  S
C1326      C1327   1.417       .  A
C1327      C1328   1.410       .  A
C1328      C1331   1.444       .  S
C1329      C1332   1.413       .  A
C1329      C1336   1.412       .  A
C1330      N1347   1.157       .  T
C1331      N1349   1.154       .  T
C1332      C1333   1.413       .  A
C1332      C1337   1.453       .  S
C1333      C1334   1.426       .  A
C1333      C1339   1.452       .  S
C1334      C1335   1.421       .  A
C1335      C1336   1.413       .  A
C1335      C1338   1.451       .  S
C1336      C1340   1.450       .  S
C1337      N1344   1.157       .  T
C1338      N1345   1.157       .  T
C1339      N1343   1.158       .  T
C1340      N1346   1.157       .  T
C1341      N1350   1.157       .  T
C1342      N1348   1.157       .  T
C1351      C1352   1.415       .  A
C1351      C1356   1.415       .  A
C1351      C1369   1.450       .  S
C1352      C1353   1.417       .  A
C1352      C1357   1.516       .  S
C1353      C1354   1.417       .  A
C1353      C1358   1.450       .  S
C1354      C1355   1.415       .  A
C1354      C1370   1.450       .  S
C1355      C1356   1.418       .  A
C1356      C1359   1.449       .  S
C1357      C1360   1.417       .  A
C1357      C1364   1.410       .  A
C1358      N1375   1.157       .  T
C1359      N1377   1.157       .  T
C1360      C1361   1.423       .  A
C1360      C1365   1.449       .  S
C1361      C1362   1.415       .  A
C1361      C1367   1.446       .  S
C1362      C1363   1.427       .  A
C1363      C1364   1.411       .  A
C1363      C1366   1.448       .  S
C1364      C1368   1.455       .  S
C1365      N1372   1.157       .  T
C1367      N1371   1.157       .  T
C1368      N1374   1.157       .  T
C1369      N1378   1.157       .  T
C1370      N1376   1.158       .  T
C1379      C1380   1.403       .  A
C1379      C1384   1.411       .  A
C1379      C1397   1.453       .  S
C1380      C1381   1.404       .  A
C1380      C1385   1.495       .  S
C1381      C1382   1.413       .  A
C1381      C1386   1.453       .  S
C1382      C1383   1.429       .  A
C1383      C1384   1.427       .  A
C1384      C1387   1.449       .  S
C1385      C1388   1.410       .  A
C1385      C1392   1.410       .  A
C1386      N1403   1.157       .  T
C1387      N1405   1.158       .  T
C1388      C1389   1.414       .  A
C1388      C1393   1.449       .  S
C1389      C1390   1.414       .  A
C1389      C1395   1.450       .  S
C1390      C1391   1.413       .  A
C1391      C1392   1.404       .  A
C1391      C1394   1.450       .  S
C1392      C1396   1.453       .  S
C1393      N1400   1.157       .  T
C1394      N1401   1.157       .  T
C1395      N1399   1.157       .  T
C1396      N1402   1.157       .  T
C1397      N1406   1.157       .  T
C1398      N1404   1.158       .  T
C1407      C1408   1.408       .  A
C1407      C1412   1.407       .  A
C1407      C1425   1.452       .  S
C1408      C1409   1.406       .  A
C1408      C1413   1.491       .  S
C1409      C1410   1.410       .  A
C1409      C1414   1.451       .  S
C1410      C1411   1.422       .  A
C1410      C1426   1.449       .  S
C1411      C1412   1.416       .  A
C1412      C1415   1.450       .  S
C1413      C1416   1.406       .  A
C1413      C1420   1.407       .  A
C1414      N1431   1.157       .  T
C1415      N1433   1.157       .  T
C1416      C1417   1.410       .  A
C1416      C1421   1.451       .  S
C1417      C1418   1.420       .  A
C1417      C1423   1.450       .  S
C1418      C1419   1.425       .  A
C1419      C1420   1.407       .  A
C1419      C1422   1.451       .  S
C1420      C1424   1.454       .  S
C1421      N1428   1.157       .  T
C1423      N1427   1.157       .  T
C1424      N1430   1.157       .  T
C1425      N1434   1.157       .  T
C1426      N1432   1.157       .  T
C1435      C1436   1.407       .  A
C1435      C1440   1.415       .  A
C1435      C1453   1.451       .  S
C1436      C1437   1.413       .  A
C1436      C1441   1.505       .  S
C1437      C1438   1.413       .  A
C1437      C1442   1.453       .  S
C1438      C1439   1.413       .  A
C1438      C1454   1.443       .  S
C1439      C1440   1.422       .  A
C1440      C1443   1.448       .  S
C1441      C1444   1.414       .  A
C1441      C1448   1.407       .  A
C1442      N1459   1.157       .  T
C1443      N1461   1.157       .  T
C1444      C1445   1.422       .  A
C1444      C1449   1.448       .  S
C1445      C1446   1.418       .  A
C1445      C1451   1.449       .  S
C1446      C1447   1.420       .  A
C1447      C1448   1.402       .  A
C1447      C1450   1.449       .  S
C1448      C1452   1.454       .  S
C1449      N1456   1.157       .  T
C1451      N1455   1.157       .  T
C1452      N1458   1.157       .  T
C1453      N1462   1.157       .  T
C1454      N1460   1.155       .  T
C1463      C1464   1.407       .  A
C1463      C1468   1.411       .  A
C1463      C1481   1.451       .  S
C1464      C1465   1.410       .  A
C1464      C1469   1.495       .  S
C1465      C1466   1.411       .  A
C1465      C1470   1.451       .  S
C1466      C1467   1.411       .  A
C1466      C1482   1.444       .  S
C1467      C1468   1.423       .  A
C1468      C1471   1.452       .  S
C1469      C1472   1.408       .  A
C1469      C1476   1.406       .  A
C1470      N1487   1.157       .  T
C1471      N1489   1.157       .  T
C1472      C1473   1.413       .  A
C1472      C1477   1.449       .  S
C1473      C1474   1.419       .  A
C1473      C1479   1.451       .  S
C1474      C1475   1.424       .  A
C1475      C1476   1.409       .  A
C1475      C1478   1.450       .  S
C1476      C1480   1.453       .  S
C1477      N1484   1.157       .  T
C1478      N1485   1.158       .  T
C1479      N1483   1.157       .  T
C1480      N1486   1.157       .  T
C1481      N1490   1.157       .  T
C1482      N1488   1.155       .  T
C1491      C1492   1.410       .  A
C1491      C1496   1.409       .  A
C1491      C1509   1.455       .  S
C1492      C1493   1.415       .  A
C1492      C1497   1.507       .  S
C1493      C1494   1.422       .  A
C1493      C1498   1.448       .  S
C1494      C1495   1.414       .  A
C1494      C1510   1.446       .  S
C1495      C1496   1.423       .  A
C1496      C1499   1.451       .  S
C1497      C1500   1.413       .  A
C1497      C1504   1.414       .  A
C1498      N1515   1.157       .  T
C1500      C1501   1.411       .  A
C1500      C1505   1.447       .  S
C1501      C1502   1.415       .  A
C1501      C1507   1.452       .  S
C1502      C1503   1.418       .  A
C1503      C1504   1.415       .  A
C1503      C1506   1.451       .  S
C1504      C1508   1.450       .  S
C1505      N1512   1.156       .  T
C1506      N1513   1.157       .  T
C1507      N1511   1.157       .  T
C1508      N1514   1.157       .  T
C1509      N1518   1.157       .  T
C1510      N1516   1.156       .  T
C1519      C1520   1.412       .  A
C1519      C1524   1.418       .  A
C1519      C1537   1.449       .  S
C1520      C1521   1.408       .  A
C1520      C1525   1.511       .  S
C1521      C1522   1.414       .  A
C1521      C1526   1.452       .  S
C1522      C1523   1.422       .  A
C1523      C1524   1.421       .  A
C1524      C1527   1.449       .  S
C1525      C1528   1.416       .  A
C1525      C1532   1.411       .  A
C1526      N1543   1.157       .  T
C1527      N1545   1.157       .  T
C1528      C1529   1.421       .  A
C1528      C1533   1.449       .  S
C1529      C1530   1.415       .  A
C1529      C1535   1.449       .  S
C1530      C1531   1.415       .  A
C1531      C1532   1.413       .  A
C1531      C1534   1.447       .  S
C1532      C1536   1.453       .  S
C1533      N1540   1.157       .  T
C1534      N1541   1.156       .  T
C1535      N1539   1.157       .  T
C1536      N1542   1.157       .  T
C1537      N1546   1.157       .  T
C1538      N1544   1.156       .  T
C1547      C1548   1.410       .  A
C1547      C1552   1.419       .  A
C1547      C1565   1.450       .  S
C1548      C1549   1.408       .  A
C1548      C1553   1.510       .  S
C1549      C1550   1.416       .  A
C1549      C1554   1.452       .  S
C1550      C1551   1.422       .  A
C1550      C1566   1.446       .  S
C1551      C1552   1.423       .  A
C1552      C1555   1.450       .  S
C1553      C1556   1.405       .  A
C1553      C1560   1.409       .  A
C1554      N1571   1.157       .  T
C1555      N1573   1.157       .  T
C1556      C1557   1.412       .  A
C1556      C1561   1.453       .  S
C1557      C1558   1.434       .  A
C1557      C1563   1.452       .  S
C1558      C1559   1.424       .  A
C1559      C1560   1.424       .  A
C1559      C1562   1.446       .  S
C1560      C1564   1.449       .  S
C1561      N1568   1.157       .  T
C1562      N1569   1.157       .  T
C1564      N1570   1.157       .  T
C1565      N1574   1.157       .  T
C1566      N1572   1.156       .  T
C1575      C1576   1.411       .  A
C1575      C1580   1.411       .  A
C1575      C1593   1.450       .  S
C1576      C1577   1.410       .  A
C1576      C1581   1.505       .  S
C1577      C1578   1.414       .  A
C1577      C1582   1.452       .  S
C1578      C1579   1.424       .  A
C1578      C1594   1.449       .  S
C1579      C1580   1.420       .  A
C1580      C1583   1.452       .  S
C1581      C1584   1.415       .  A
C1581      C1588   1.414       .  A
C1582      N1599   1.157       .  T
C1583      N1601   1.157       .  T
C1584      C1585   1.407       .  A
C1584      C1589   1.452       .  S
C1585      C1586   1.412       .  A
C1585      C1591   1.451   1_565  S
C1586      C1587   1.416       .  A
C1587      C1588   1.417       .  A
C1587      C1590   1.450       .  S
C1588      C1592   1.450       .  S
C1589      N1596   1.157       .  T
C1590      N1597   1.157       .  T
C1591      N1595   1.157       .  T
C1592      N1598   1.157       .  T
C1593      N1602   1.157       .  T
C1594      N1600   1.158       .  T
C1603      C1604   1.411       .  A
C1603      C1608   1.415       .  A
C1603      C1621   1.448       .  S
C1604      C1605   1.406       .  A
C1604      C1609   1.504       .  S
C1605      C1606   1.412       .  A
C1605      C1610   1.454       .  S
C1606      C1607   1.422       .  A
C1606      C1622   1.447       .  S
C1607      C1608   1.416       .  A
C1608      C1611   1.450       .  S
C1609      C1612   1.411       .  A
C1609      C1616   1.411       .  A
C1610      N1627   1.157   1_565  T
C1611      N1629   1.157       .  T
C1612      C1613   1.421   1_565  A
C1612      C1617   1.448       .  S
C1613      C1614   1.420       .  A
C1613      C1619   1.449       .  S
C1614      C1615   1.418   1_545  A
C1615      C1616   1.408       .  A
C1615      C1618   1.447       .  S
C1616      C1620   1.454       .  S
C1617      N1624   1.157   1_565  T
C1618      N1625   1.155       .  T
C1619      N1623   1.157       .  T
C1620      N1626   1.157       .  T
C1621      N1630   1.157       .  T
C1631      C1632   1.413       .  A
C1631      C1636   1.418       .  A
C1631      C1649   1.450       .  S
C1632      C1633   1.406       .  A
C1632      C1637   1.508       .  S
C1633      C1634   1.413   1_565  A
C1633      C1638   1.453   1_565  S
C1634      C1635   1.433       .  A
C1634      C1650   1.452       .  S
C1635      C1636   1.418   1_545  A
C1636      C1639   1.448       .  S
C1637      C1640   1.412       .  A
C1637      C1644   1.411       .  A
C1638      N1655   1.157       .  T
C1639      N1657   1.157       .  T
C1640      C1641   1.414       .  A
C1640      C1645   1.452       .  S
C1641      C1642   1.418       .  A
C1641      C1647   1.449       .  S
C1642      C1643   1.416       .  A
C1643      C1644   1.416       .  A
C1643      C1646   1.447       .  S
C1644      C1648   1.451       .  S
C1645      N1652   1.157       .  T
C1646      N1653   1.156       .  T
C1648      N1654   1.157       .  T
C1649      N1658   1.157       .  T
C1650      N1656   1.158       .  T
C1659      C1660   1.417       .  A
C1659      C1664   1.422       .  A
C1659      C1677   1.450       .  S
C1660      C1661   1.413       .  A
C1660      C1665   1.521       .  S
C1661      C1662   1.414       .  A
C1661      C1666   1.451       .  S
C1662      C1663   1.421       .  A
C1663      C1664   1.415       .  A
C1664      C1667   1.444       .  S
C1665      C1668   1.418       .  A
C1665      C1672   1.412       .  A
C1666      N1683   1.157       .  T
C1667      N1685   1.157       .  T
C1668      C1669   1.422       .  A
C1668      C1673   1.450       .  S
C1669      C1670   1.418       .  A
C1669      C1675   1.449       .  S
C1670      C1671   1.426   1_565  A
C1671      C1672   1.416   1_545  A
C1671      C1674   1.453       .  S
C1672      C1676   1.453       .  S
C1673      N1680   1.157       .  T
C1674      N1681   1.158       .  T
C1675      N1679   1.157       .  T
C1676      N1682   1.157   1_565  T
C1677      N1686   1.157       .  T
C1678      N1684   1.157       .  T
