geometry optimzed in LAMMPS
_audit_creation_date              2020-12-01 
_audit_creation_method            'lammps2cif' 
_symmetry_space_group_name_H-M    'P1' 
_symmetry_Int_Tables_number       1 
_symmetry_cell_setting            triclinic 
loop_ 
_symmetry_equiv_pos_as_xyz 
  x,y,z 
_cell_length_a                    56.7254344 
_cell_length_b                    56.75582538097386 
_cell_length_c                    28.337950343869608 
_cell_angle_alpha                 89.89999028023954 
_cell_angle_beta                  90.1149950190236 
_cell_angle_gamma                 120.03504758387757 
loop_ 
_atom_site_label 
_atom_site_type_symbol 
_atom_site_fract_x 
_atom_site_fract_y 
_atom_site_fract_z 
_atom_site_charge 
C1          C  0.49739520  0.72761507  0.21931590     0.80400
N2          N  0.49742286  0.72757036  0.26718880    -0.77900
C3          C  0.49949822  0.74913881  0.29143972     0.82900
N4          N  0.50141079  0.77064885  0.26721300    -0.77800
C5          C  0.50188333  0.77116615  0.21931569     0.83000
N6          N  0.49976517  0.74946360  0.19558771    -0.79500
C7          C  0.47228390  0.71430999  0.71505254     0.80400
N8          N  0.47497952  0.71600052  0.66747820    -0.77900
C9          C  0.47562309  0.73704129  0.64368683     0.82900
N10         N  0.47453215  0.75708839  0.66792604    -0.77800
C11         C  0.47218858  0.75594357  0.71575809     0.83000
N12         N  0.47096670  0.73436985  0.73882928    -0.79500
C13         C  0.24302309  0.76983533  0.71560386     0.80400
N14         N  0.24261718  0.76822753  0.66779476    -0.77900
C15         C  0.22156547  0.74729719  0.64485221     0.82900
N16         N  0.20036184  0.72794509  0.66989711    -0.77800
C17         C  0.20022609  0.72936842  0.71765236     0.83000
N18         N  0.22167605  0.75011580  0.74024654    -0.79500
C19         C  0.24284882  0.76920359  0.21961650     0.80400
N20         N  0.24136174  0.76827406  0.26758678    -0.77900
C21         C  0.21928001  0.74802043  0.28996617     0.82900
N22         N  0.19839696  0.72890001  0.26392010    -0.77800
C23         C  0.19953897  0.72973187  0.21617574     0.83000
N24         N  0.22178323  0.74975713  0.19429338    -0.79500
C25         C  0.20839116  0.48386153  0.21787531     0.80400
N26         N  0.21101976  0.48729023  0.26544003    -0.77900
C27         C  0.23228861  0.48765410  0.28837016     0.82900
N28         N  0.25091756  0.48457409  0.26327007    -0.77800
C29         C  0.24842752  0.48108977  0.21581897     0.83000
N30         N  0.22718793  0.48081099  0.19308784    -0.79500
C31         C  0.21181956  0.49092925  0.71401211     0.80400
N32         N  0.23122231  0.48896091  0.73913046    -0.77900
C33         C  0.25272873  0.48939358  0.71730163     0.82900
N34         N  0.25452152  0.49143775  0.66949882    -0.77800
C35         C  0.23545806  0.49359770  0.64389266     0.83000
N36         N  0.21403713  0.49304135  0.66626558    -0.79500
C37         C  0.76232435  0.24919922  0.71611854     0.80400
N38         N  0.76273990  0.24871913  0.66835222    -0.77900
C39         C  0.74261045  0.22751239  0.64441843     0.82900
N40         N  0.72160216  0.20727545  0.66847486    -0.77800
C41         C  0.72079312  0.20759123  0.71634317     0.83000
N42         N  0.74127116  0.22877582  0.74002079    -0.79500
C43         C  0.75755269  0.25697927  0.22162890     0.80400
N44         N  0.73634415  0.23766106  0.19607866    -0.77900
C45         C  0.71382189  0.21768168  0.21788333     0.82900
N46         N  0.71275914  0.21670223  0.26584930    -0.77800
C47         C  0.73375042  0.23600998  0.29165152     0.83000
N48         N  0.75590962  0.25585440  0.26928984    -0.79500
C49         C  0.71687128  0.50327229  0.21841593     0.80400
N50         N  0.73573944  0.50001048  0.19467344    -0.77900
C51         C  0.75429986  0.49602767  0.21813492     0.82900
N52         N  0.75366326  0.49524914  0.26615172    -0.77800
C53         C  0.73451219  0.49804497  0.29032382     0.83000
N54         N  0.71635095  0.50231225  0.26616698    -0.79500
C55         C  0.71786544  0.50658295  0.71551916     0.80400
N56         N  0.73753817  0.50481923  0.74007659    -0.77900
C57         C  0.75757021  0.50288519  0.71733175     0.82900
N58         N  0.75751033  0.50255377  0.66938072    -0.77800
C59         C  0.73775169  0.50385490  0.64456438     0.83000
N60         N  0.71806631  0.50597390  0.66773393    -0.79500
C61         C  0.49641910  0.22726232  0.71765823     0.80400
N62         N  0.49690650  0.24793483  0.74246867    -0.77900
C63         C  0.50076475  0.27072334  0.71994531     0.82900
N64         N  0.50368054  0.27259702  0.67226480    -0.77800
C65         C  0.50359011  0.25213808  0.64729973     0.83000
N66         N  0.49983948  0.22949079  0.67020666    -0.79500
C67         C  0.48714544  0.22291785  0.22068420     0.80400
N68         N  0.49029738  0.22448419  0.26828109    -0.77900
C69         C  0.49318164  0.24634814  0.29248968     0.82900
N70         N  0.49265250  0.26683173  0.26854609    -0.77800
C71         C  0.48981304  0.26571092  0.22089320     0.83000
N72         N  0.48686973  0.24362961  0.19724958    -0.79500
O73         O  0.50566204  0.56189425  0.05834720    -0.75100
O74         O  0.46740828  0.55399463  0.01876798    -0.54000
C75         C  0.48722188  0.56787888  0.04726931     0.78700
O76         O  0.55190713  0.51668936  0.87465043    -0.59700
O77         O  0.54825738  0.48057484  0.91654467    -0.52700
C78         C  0.55927306  0.49924952  0.88500972     0.70700
O79         O  0.50327774  0.55998750  0.87612396    -0.74200
O80         O  0.46644058  0.55281957  0.91898591    -0.54800
C81         C  0.48468985  0.56563034  0.88747677     0.76700
O82         O  0.55259256  0.51703325  0.06270432    -0.59400
O83         O  0.54860600  0.48078452  0.02095585    -0.52500
C84         C  0.56008304  0.49981593  0.05164329     0.73300
Zr85       Zr  0.51659393  0.52635257  0.04052503     2.54700
O86         O  0.55946066  0.56912767  0.04711114    -0.79900
O87         O  0.51155181  0.52173400  0.12585519    -0.93400
Zr88       Zr  0.51742295  0.52752159  0.90015860     2.64700
O89         O  0.55929314  0.57110718  0.90879679    -0.98300
O90         O  0.51974329  0.53062089  0.81443345    -0.80400
O91         O  0.50361337  0.53971740  0.97038445    -0.83700
O92         O  0.53159419  0.51533506  0.97017569    -2.18400
O93         O  0.46054953  0.42070289  0.06071002    -0.67100
O94         O  0.49858401  0.42854284  0.02018296    -0.51700
C95         C  0.47932866  0.41525485  0.04995068     0.71700
O96         O  0.41223925  0.46425544  0.87653122    -0.60000
O97         O  0.41754203  0.50151596  0.91642899    -0.52000
C98         C  0.40530940  0.48209844  0.88654611     0.73500
O99         O  0.46352635  0.42335419  0.87310265    -0.71400
O100        O  0.49990496  0.42982477  0.91695022    -0.50100
C101        C  0.48203336  0.41752962  0.88456571     0.74800
O102        O  0.40987552  0.46146303  0.05683231    -0.66700
O103        O  0.41529798  0.49918848  0.01840688    -0.53900
C104        C  0.40222485  0.47865727  0.04594500     0.73200
Zr105      Zr  0.44819915  0.45475978  0.03918833     2.77500
O106        O  0.40631484  0.41099526  0.04451524    -0.97500
O107        O  0.45158882  0.45961698  0.12466722    -0.78300
Zr108      Zr  0.44880970  0.45532154  0.89839097     2.70100
O109        O  0.40776592  0.41086175  0.90218470    -0.79600
O110        O  0.44842987  0.45763857  0.81264429    -0.98600
Zr111      Zr  0.45527122  0.51478547  0.96967576     2.21500
Zr112      Zr  0.51021720  0.46702395  0.96923715     2.11100
O113        O  0.46179966  0.44225456  0.96875380    -2.47300
O114        O  0.43405653  0.46662045  0.96867007    -0.79400
O115        O  0.49650020  0.47829304  0.04081920    -0.71600
O116        O  0.46919230  0.50337531  0.89827213    -2.32500
O117        O  0.46829839  0.50281645  0.04152844    -2.28700
O118        O  0.49710286  0.47938649  0.89791057    -0.73300
H119        H  0.55116369  0.52364254  0.97021759     0.78700
H120        H  0.46294143  0.50893837  0.87100260     0.79800
H121        H  0.45486694  0.42283806  0.96826943     0.82000
H122        H  0.46178372  0.50827388  0.06850946     0.79600
H123        H  0.51576060  0.51237264  0.80382838     0.42600
H124        H  0.46613990  0.45980160  0.80278002     0.41600
H125        H  0.39684476  0.41265614  0.92766849     0.41300
H126        H  0.40864676  0.39915594  0.02165183     0.39200
H127        H  0.46806327  0.45869155  0.13302344     0.42400
H128        H  0.52769485  0.53819824  0.13833863     0.37100
H129        H  0.57091347  0.56853889  0.02132488     0.43300
H130        H  0.57369862  0.56645996  0.91470733     0.39700
H131        H  0.40707110  0.40368809  0.07588781     0.44600
H132        H  0.51486889  0.50663023  0.13374459     0.43300
H133        H  0.56315460  0.57904375  0.87667133     0.43400
H134        H  0.43474551  0.43900897  0.80260157     0.43800
O135        O  0.02559968  0.55948195  0.87176435    -0.75100
O136        O  0.05774160  0.55391590  0.91086603    -0.54000
C137        C  0.05040337  0.56611076  0.88108300     0.78700
O138        O  0.93409481  0.51257369  0.05858431    -0.59700
O139        O  0.90320507  0.47484125  0.01835532    -0.52700
C140        C  0.90955250  0.49403756  0.04844319     0.70700
O141        O  0.02623840  0.56114888  0.05647431    -0.74200
O142        O  0.05797378  0.55782798  0.01186324    -0.54800
C143        C  0.05087594  0.56950633  0.04305347     0.76700
O144        O  0.93397897  0.51122426  0.87189816    -0.59400
O145        O  0.90318423  0.47422870  0.91395853    -0.52500
C146        C  0.90955278  0.49284372  0.88266435     0.73300
Zr147      Zr  0.98008048  0.52350255  0.89469553     2.54700
O148        O  0.97888711  0.56578836  0.89375615    -0.79900
O149        O  0.97827463  0.51970309  0.80906961    -0.93400
Zr150      Zr  0.98042598  0.52517452  0.03493326     2.64700
O151        O  0.98046606  0.56800200  0.02915804    -0.98300
O152        O  0.98007991  0.52534505  0.12084967    -0.80400
O153        O  0.00649985  0.53854484  0.96452384    -0.83700
O154        O  0.95390159  0.51116410  0.96502517    -2.18400
O155        O  0.93586492  0.42085951  0.87090024    -0.67100
O156        O  0.90399448  0.42419982  0.91483201    -0.51700
C157        C  0.91106909  0.41335491  0.88204778     0.71700
O158        O  0.02916852  0.46903669  0.06038423    -0.60000
O159        O  0.05973625  0.50667093  0.01937806    -0.52000
C160        C  0.05357428  0.48800041  0.05053536     0.73500
O161        O  0.93727326  0.41987588  0.06017292    -0.71400
O162        O  0.90492208  0.42438034  0.01941775    -0.50100
C163        C  0.91245274  0.41249558  0.04955303     0.74800
O164        O  0.02783432  0.46573712  0.87527561    -0.66700
O165        O  0.05865688  0.50272902  0.91679837    -0.53900
C166        C  0.05240060  0.48362543  0.88653382     0.73200
Zr167      Zr  0.98170283  0.45403753  0.89796121     2.77500
O168        O  0.98021709  0.41084145  0.91070324    -0.97500
O169        O  0.98283426  0.45051595  0.81251269    -0.78300
Zr170      Zr  0.98259985  0.45623624  0.03798662     2.70100
O171        O  0.98409961  0.41418830  0.04310422    -0.79600
O172        O  0.98227288  0.46054522  0.12338368    -0.98600
Zr173      Zr  0.03298563  0.51679031  0.96540229     2.21500
Zr174      Zr  0.92931910  0.46268581  0.96679337     2.11100
O175        O  0.95583186  0.44089176  0.96824568    -2.47300
O176        O  0.00861166  0.46838389  0.96753272    -0.79400
O177        O  0.95476976  0.47523987  0.89553331    -0.71600
O178        O  0.00780834  0.50446865  0.03716925    -2.32500
O179        O  0.00703408  0.50233892  0.89443499    -2.28700
O180        O  0.95514750  0.47690438  0.03778799    -0.73300
H181        H  0.94171484  0.51842486  0.96457469     0.78700
H182        H  0.01977437  0.51106557  0.06420770     0.79800
H183        H  0.94432243  0.42134781  0.96868565     0.82000
H184        H  0.01871699  0.50805998  0.86701892     0.79600
H185        H  0.99104022  0.51693117  0.13014426     0.42600
H186        H  0.96464396  0.45941281  0.13043767     0.41600
H187        H  0.97405974  0.40367463  0.01486898     0.41300
H188        H  0.96070266  0.39726354  0.91502645     0.39200
H189        H  0.97771117  0.46372961  0.80046958     0.42400
H190        H  0.99401785  0.51757570  0.80051313     0.37100
H191        H  0.98622067  0.57412574  0.92493041     0.43300
H192        H  0.96341534  0.56345584  0.01228325     0.39700
H193        H  0.98490035  0.40632863  0.87966361     0.44600
H194        H  0.98322473  0.53812056  0.79773417     0.43300
H195        H  0.97749925  0.57202024  0.06187894     0.43400
H196        H  0.98026848  0.44329047  0.13564583     0.43800
O197        O  0.49843575  0.94151256  0.87147571    -0.75100
O198        O  0.46318840  0.91154133  0.91727418    -0.54000
C199        C  0.48050915  0.91714048  0.88383996     0.78700
O200        O  0.55368336  0.03695865  0.05495062    -0.59700
O201        O  0.54740882  0.06766420  0.01335090    -0.52700
C202        C  0.56062297  0.06151809  0.04285570     0.70700
O203        O  0.50681199  0.94503821  0.05792965    -0.74200
O204        O  0.46850423  0.91387422  0.02002539    -0.54800
C205        C  0.48840217  0.92034104  0.04870569     0.76700
O206        O  0.54770126  0.03400198  0.86933484    -0.59400
O207        O  0.54441195  0.06612202  0.91224251    -0.52500
C208        C  0.55536326  0.05889455  0.88010163     0.73300
Zr209      Zr  0.51277168  0.98843055  0.89446800     2.54700
O210        O  0.55469947  0.98657920  0.89147081    -0.79900
O211        O  0.50892441  0.98919438  0.80895691    -0.93400
Zr212      Zr  0.51760561  0.99071579  0.03503306     2.64700
O213        O  0.55996142  0.98981044  0.02843546    -0.98300
O214        O  0.51892327  0.99141293  0.12090765    -0.80400
O215        O  0.50201840  0.96333809  0.96599224    -0.83700
O216        O  0.52935128  0.01548990  0.96345676    -2.18400
O217        O  0.45721741  0.03716733  0.87534609    -0.67100
O218        O  0.49509987  0.06771127  0.91538051    -0.51700
C219        C  0.47618983  0.06161391  0.88484070     0.71700
O220        O  0.41137933  0.94745551  0.06386070    -0.60000
O221        O  0.41576394  0.91490408  0.02407930    -0.52000
C222        C  0.40379133  0.92254306  0.05373154     0.73500
O223        O  0.46365336  0.03921732  0.06729944    -0.71400
O224        O  0.49747591  0.06879970  0.01871640    -0.50100
C225        C  0.48124002  0.06343879  0.05362577     0.74800
O226        O  0.40747465  0.94502588  0.88257839    -0.66700
O227        O  0.41367831  0.91344212  0.92196277    -0.53900
C228        C  0.40061254  0.92034707  0.89321995     0.73200
Zr229      Zr  0.44391951  0.99093630  0.90136009     2.77500
O230        O  0.40191224  0.99257644  0.90593494    -0.97500
O231        O  0.44232482  0.98906113  0.81553529    -0.78300
Zr232      Zr  0.44829611  0.99257315  0.04185651     2.70100
O233        O  0.40810999  0.99753708  0.04437083    -0.79600
O234        O  0.44963157  0.98970536  0.12743686    -0.98600
Zr235      Zr  0.45368744  0.93894290  0.97058081     2.21500
Zr236      Zr  0.50730427  0.04164289  0.96618971     2.11100
O237        O  0.45899780  0.01785530  0.97064690    -2.47300
O238        O  0.43198826  0.96555789  0.97271506    -0.79400
O239        O  0.49203598  0.01577867  0.89575338    -0.71600
O240        O  0.46932202  0.96543434  0.04076868    -2.32500
O241        O  0.46459945  0.96355088  0.89820356    -2.28700
O242        O  0.49658646  0.01773983  0.03888908    -0.73300
H243        H  0.54887328  0.02698148  0.96158980     0.78700
H244        H  0.46393999  0.95391357  0.06842693     0.79800
H245        H  0.45203393  0.03028310  0.97151749     0.82000
H246        H  0.45746546  0.95140819  0.87151043     0.79600
H247        H  0.53800411  0.99697882  0.12895411     0.42600
H248        H  0.46870621  0.00295054  0.13601569     0.41600
H249        H  0.39621472  0.98547985  0.01895024     0.41300
H250        H  0.40638124  0.00842951  0.92630548     0.39200
H251        H  0.46146776  0.00095688  0.80562639     0.42400
H252        H  0.49229555  0.97184831  0.80099450     0.37100
H253        H  0.55277825  0.97387749  0.91714073     0.43300
H254        H  0.57233600  0.00634808  0.01022098     0.39700
H255        H  0.39965730  0.99828933  0.87399944     0.44600
H256        H  0.52410711  0.98704033  0.79690477     0.43300
H257        H  0.56762198  0.99355143  0.06076949     0.43400
H258        H  0.43898225  0.99801437  0.13896120     0.43800
C259        C  0.45879840  0.34477713  0.09616998    -0.22200
C260        C  0.48147829  0.35071598  0.12422826     0.09700
C261        C  0.50323791  0.37772941  0.12766693     0.10100
C262        C  0.50185995  0.39831588  0.10275775    -0.17200
C263        C  0.47926861  0.39245988  0.07455115    -0.27600
C264        C  0.45746691  0.36534654  0.07088616     0.18500
C265        C  0.48261354  0.32830324  0.14859706     0.12400
C266        C  0.52783292  0.38483759  0.15777781    -0.11900
H267        H  0.51844352  0.41916064  0.10546709     0.12700
C268        C  0.43310343  0.35723345  0.03949245    -0.22800
H269        H  0.44230005  0.32390113  0.09331566     0.08400
C270        C  0.46935337  0.31792142  0.19200682     0.04700
C271        C  0.47241118  0.29771110  0.21496222    -0.20000
C272        C  0.48846349  0.28772231  0.19546964    -0.12300
C273        C  0.50209614  0.29855527  0.15210760     0.13400
C274        C  0.49851971  0.31835360  0.12889360    -0.22700
C275        C  0.45223778  0.32836087  0.21419520    -0.05800
H276        H  0.46197310  0.28945303  0.24811104     0.14900
C277        C  0.52165100  0.29102972  0.13020647    -0.16000
H278        H  0.50897394  0.32680573  0.09580634     0.09300
H279        H  0.41436920  0.34863931  0.06132677     0.07100
H280        H  0.43120757  0.34149303  0.01409060     0.08300
H281        H  0.43456017  0.37441882  0.01862218     0.07400
H282        H  0.53831582  0.37408213  0.14456918     0.02200
H283        H  0.52143836  0.37871236  0.19489291     0.02700
H284        H  0.54268489  0.40702448  0.15720201     0.06200
H285        H  0.44348088  0.31819524  0.24842948     0.05200
H286        H  0.43515668  0.32452115  0.19027757    -0.00600
H287        H  0.46490924  0.35057390  0.22066262     0.00900
H288        H  0.51331553  0.28059197  0.09601930     0.04600
H289        H  0.52613470  0.27787585  0.15285856     0.06500
H290        H  0.54143978  0.30981680  0.12361279     0.07400
C291        C  0.47090148  0.16724086  0.12961991    -0.22200
C292        C  0.48308461  0.15370055  0.15089597     0.09700
C293        C  0.49627338  0.16268691  0.19476833     0.10100
C294        C  0.49742247  0.18544435  0.21602847    -0.17200
C295        C  0.48525315  0.19923602  0.19508950    -0.27600
C296        C  0.47147873  0.18973095  0.15132369     0.18500
C297        C  0.48219108  0.13036929  0.12628058     0.12400
C298        C  0.50872456  0.14800975  0.21963767    -0.11900
H299        H  0.50818131  0.19259764  0.24915881     0.12700
C300        C  0.45662352  0.20237839  0.12772523    -0.22800
H301        H  0.46083272  0.16006941  0.09582524     0.08400
C302        C  0.45799764  0.10501451  0.12309206     0.04700
C303        C  0.45841865  0.08348419  0.09971250    -0.20000
C304        C  0.48245674  0.08678111  0.07922381    -0.12300
C305        C  0.50686497  0.11229765  0.08326335     0.13400
C306        C  0.50624986  0.13374571  0.10646538    -0.22700
C307        C  0.43185699  0.10060085  0.14479929    -0.05800
H308        H  0.43972914  0.06407819  0.09682600     0.14900
C309        C  0.53386949  0.11712401  0.06472980    -0.16000
H310        H  0.52470871  0.15336662  0.10936985     0.09300
H311        H  0.44535910  0.19082821  0.09585639     0.07100
H312        H  0.47130414  0.22341566  0.11617296     0.08300
H313        H  0.44157157  0.20255401  0.15250704     0.07400
H314        H  0.52558608  0.14906702  0.19826210     0.02200
H315        H  0.49297803  0.12636204  0.22514825     0.02700
H316        H  0.51715234  0.15709364  0.25468755     0.06200
H317        H  0.41508029  0.07926635  0.14046325     0.05200
H318        H  0.42544949  0.11409940  0.12768758    -0.00600
H319        H  0.43488740  0.10517715  0.18313895     0.00900
H320        H  0.53350337  0.11627044  0.02561659     0.04600
H321        H  0.53837768  0.10164878  0.07940654     0.06500
H322        H  0.55090171  0.13748053  0.07490176     0.07400
C323        C  0.51972711  0.27480162  0.51902529    -0.22200
C324        C  0.50015003  0.25125632  0.49599229     0.09700
C325        C  0.48226212  0.22810948  0.52249590     0.10100
C326        C  0.48433225  0.22908155  0.57175437    -0.17200
C327        C  0.50386891  0.25264048  0.59518662    -0.27600
C328        C  0.52210446  0.27574107  0.56834060     0.18500
C329        C  0.49909758  0.25098155  0.44394586     0.12400
C330        C  0.46066053  0.20258544  0.49886284    -0.11900
H331        H  0.47024363  0.21143475  0.59218503     0.12700
C332        C  0.54508095  0.30115931  0.58980890    -0.22800
H333        H  0.53365005  0.29237202  0.49824264     0.08400
C334        C  0.48686146  0.26354143  0.41899489     0.04700
C335        C  0.48543733  0.26176847  0.36967521    -0.20000
C336        C  0.49583413  0.24757659  0.34465652    -0.12300
C337        C  0.50851401  0.23529725  0.37005837     0.13400
C338        C  0.51004593  0.23732968  0.41939185    -0.22700
C339        C  0.47492988  0.27841906  0.44447770    -0.05800
H340        H  0.47569548  0.27117538  0.35063668     0.14900
C341        C  0.52086920  0.22036162  0.34603302    -0.16000
H342        H  0.51954403  0.22791381  0.43917142     0.09300
H343        H  0.54162062  0.31853514  0.58382379     0.07100
H344        H  0.56457018  0.30577022  0.57285219     0.08300
H345        H  0.54756463  0.29913935  0.62796961     0.07400
H346        H  0.47029566  0.19418022  0.47541824     0.02200
H347        H  0.44706690  0.20730228  0.47761904     0.02700
H348        H  0.44795754  0.18662522  0.52497870     0.06200
H349        H  0.46555457  0.28653974  0.41963196     0.05200
H350        H  0.49114889  0.29581118  0.46444446    -0.00600
H351        H  0.45894769  0.26436692  0.46938059     0.00900
H352        H  0.53192173  0.21436414  0.37133736     0.04600
H353        H  0.53564817  0.23354443  0.31875104     0.06500
H354        H  0.50455084  0.20138036  0.32988364     0.07400
C355        C  0.47551657  0.36506498  0.79285856    -0.22200
C356        C  0.48832124  0.35293336  0.81675010     0.09700
C357        C  0.49858468  0.36158244  0.86254658     0.10100
C358        C  0.49582395  0.38235596  0.88359890    -0.17200
C359        C  0.48307038  0.39488724  0.85996074    -0.27600
C360        C  0.47268518  0.38594283  0.81375951     0.18500
C361        C  0.49138956  0.33159017  0.79268589     0.12400
C362        C  0.51254081  0.34893507  0.88909905    -0.11900
H363        H  0.50370767  0.38876831  0.91898456     0.12700
C364        C  0.45930846  0.39855439  0.78547017    -0.22800
H365        H  0.46785645  0.35820745  0.75748497     0.08400
C366        C  0.47133700  0.30388804  0.79624514     0.04700
C367        C  0.47552408  0.28435995  0.77352677    -0.20000
C368        C  0.49901189  0.29206337  0.74653094    -0.12300
C369        C  0.51922327  0.31988062  0.74346697     0.13400
C370        C  0.51503245  0.33932162  0.76641598    -0.22700
C371        C  0.44536403  0.29508158  0.82317683    -0.05800
H372        H  0.46000305  0.26304683  0.77559651     0.14900
C373        C  0.54574075  0.32972636  0.71772915    -0.16000
H374        H  0.53046804  0.36067254  0.76430591     0.09300
H375        H  0.44028576  0.39481352  0.80308673     0.07100
H376        H  0.45367930  0.38973617  0.74946651     0.08300
H377        H  0.47352932  0.42074738  0.78163108     0.07400
H378        H  0.53066111  0.35195035  0.86911494     0.02200
H379        H  0.49830385  0.32680235  0.89375121     0.09300
H380        H  0.51942874  0.35812748  0.92461298     0.06200
H381        H  0.43177376  0.27264633  0.82224936     0.05200
H382        H  0.43421550  0.30461590  0.80741097    -0.00600
H383        H  0.45007873  0.30144160  0.86062423     0.00900
H384        H  0.54657059  0.34214666  0.68678135     0.04600
H385        H  0.54873913  0.31288080  0.70572085     0.06500
H386        H  0.56296911  0.34251087  0.74172748     0.07400
C387        C  0.47170354  0.10683047  0.78953882    -0.22200
C388        C  0.48336582  0.13178301  0.81332079     0.09700
C389        C  0.49170016  0.13343587  0.86058879     0.10100
C390        C  0.48811786  0.10994077  0.88322325    -0.17200
C391        C  0.47680694  0.08481328  0.85950554    -0.27600
C392        C  0.46852394  0.08329289  0.81181463     0.18500
C393        C  0.48675768  0.15604206  0.78801345     0.12400
C394        C  0.50501545  0.16013633  0.88673037    -0.11900
H395        H  0.49458452  0.11134085  0.91963959     0.12700
C396        C  0.45753650  0.05748410  0.78338188    -0.22800
H397        H  0.46547906  0.10594142  0.75308137     0.08400
C398        C  0.50814367  0.17024427  0.75561890     0.04700
C399        C  0.51049724  0.19323542  0.73267448    -0.20000
C400        C  0.49208696  0.20239249  0.74178819    -0.12300
C401        C  0.47031993  0.18774029  0.77368370     0.13400
C402        C  0.46818734  0.16492033  0.79680034    -0.22700
C403        C  0.52875449  0.16147499  0.74614120    -0.05800
H404        H  0.52709314  0.20443884  0.70814413     0.14900
C405        C  0.44829964  0.19466300  0.78284740    -0.16000
H406        H  0.45163394  0.15366457  0.82140414     0.09300
H407        H  0.45360803  0.06061259  0.74612420     0.07100
H408        H  0.43796076  0.04153351  0.79852440     0.08300
H409        H  0.47254041  0.05035527  0.78323764     0.07400
H410        H  0.49082150  0.16820673  0.88890465     0.02200
H411        H  0.52377883  0.17504964  0.86788909     0.02700
H412        H  0.51077888  0.15790560  0.92325637     0.06200
H413        H  0.54440345  0.17510274  0.72035016     0.05200
H414        H  0.51843685  0.14052384  0.73154645    -0.00600
H415        H  0.53925780  0.16186339  0.77949358     0.00900
H416        H  0.42807786  0.17642265  0.77624157     0.04600
H417        H  0.44960531  0.21101222  0.75977246     0.06500
H418        H  0.44927845  0.20092597  0.82022476     0.07400
C419        C  0.66202283  0.52216809  0.74834904    -0.22200
C420        C  0.65168597  0.50638875  0.78913700     0.09700
C421        C  0.66356640  0.49148200  0.80663194     0.10100
C422        C  0.68554531  0.49245394  0.78241858    -0.17200
C423        C  0.69559511  0.50765899  0.74068122    -0.27600
C424        C  0.68383712  0.52300588  0.72369564     0.18500
C425        C  0.62803984  0.50537193  0.81267178     0.12400
C426        C  0.65294083  0.47450940  0.85073505    -0.11900
H427        H  0.69446350  0.48071422  0.79554945     0.12700
C428        C  0.69442710  0.54083304  0.68045985    -0.22800
H429        H  0.65274418  0.53365892  0.73556664     0.08400
C430        C  0.63120787  0.52586599  0.84439682     0.04700
C431        C  0.60819669  0.52347525  0.86710665    -0.20000
C432        C  0.58230476  0.50099479  0.85883390    -0.12300
C433        C  0.57904664  0.48070955  0.82632417     0.13400
C434        C  0.60207564  0.48320911  0.80355333    -0.22700
C435        C  0.65886297  0.54995297  0.85471922    -0.05800
H436        H  0.61042972  0.53894878  0.89202261     0.14900
C437        C  0.55167819  0.45652467  0.81427330    -0.16000
H438        H  0.59982324  0.46770066  0.77869937     0.09300
H439        H  0.68428671  0.55305661  0.67513243     0.07100
H440        H  0.69044134  0.52816515  0.64844075     0.08300
H441        H  0.71662219  0.55519229  0.68418382     0.07400
H442        H  0.63128397  0.45864365  0.84575042     0.02200
H443        H  0.65455701  0.48768437  0.88092630     0.02700
H444        H  0.66459217  0.46415288  0.85962437     0.06200
H445        H  0.65771164  0.56389367  0.88088217     0.05200
H446        H  0.66788158  0.56162491  0.82178287    -0.00600
H447        H  0.67243415  0.54284321  0.86918659     0.00900
H448        H  0.54791860  0.45645393  0.77578671     0.04600
H449        H  0.53456373  0.45662564  0.83283805     0.06500
H450        H  0.55151778  0.43744185  0.82367428     0.07400
C451        C  0.80073218  0.49524684  0.81414555    -0.22200
C452        C  0.82321042  0.49919608  0.78777657     0.09700
C453        C  0.82431400  0.50440872  0.73911760     0.10100
C454        C  0.80255356  0.50528369  0.71755892    -0.17200
C455        C  0.77972423  0.50151709  0.74357859    -0.27600
C456        C  0.77900779  0.49655119  0.79300660     0.18500
C457        C  0.84549669  0.49784324  0.81199715     0.12400
C458        C  0.84856588  0.50921791  0.71004407    -0.11900
H459        H  0.80371286  0.50929129  0.68000693     0.12700
C460        C  0.75573803  0.49241213  0.82423621    -0.22800
H461        H  0.80037049  0.49132748  0.85168030     0.08400
C462        C  0.86760589  0.52126415  0.83175193     0.04700
C463        C  0.88848705  0.51904513  0.85389092    -0.20000
C464        C  0.88724216  0.49379146  0.85787974    -0.12300
C465        C  0.86495769  0.47026617  0.83817963     0.13400
C466        C  0.84436338  0.47267083  0.81516169    -0.22700
C467        C  0.86890310  0.54842912  0.83005383    -0.05800
H468        H  0.90558378  0.53699638  0.86913342     0.14900
C469        C  0.86316574  0.44284096  0.84002048    -0.16000
H470        H  0.82724419  0.45487315  0.79961332     0.09300
H471        H  0.75413975  0.51111766  0.82462790     0.07100
H472        H  0.75870282  0.48812192  0.86137000     0.08300
H473        H  0.73643897  0.47480215  0.81151808     0.07400
H474        H  0.85117853  0.49112003  0.71195839     0.02200
H475        H  0.86724815  0.52721258  0.72367889     0.02700
H476        H  0.84617028  0.51303719  0.67236679     0.06200
H477        H  0.88755505  0.56460470  0.84749785     0.05200
H478        H  0.85095800  0.54697425  0.84845291    -0.00600
H479        H  0.86892894  0.55459372  0.79287075     0.00900
H480        H  0.86117663  0.43580126  0.87710253     0.04600
H481        H  0.88168579  0.44422709  0.82406283     0.06500
H482        H  0.84519488  0.42716106  0.82032757     0.07400
C483        C  0.66486532  0.52314868  0.18227617    -0.22200
C484        C  0.65108727  0.50405787  0.14669192     0.09700
C485        C  0.65995096  0.48596713  0.13268826     0.10100
C486        C  0.68222127  0.48691255  0.15577820    -0.17200
C487        C  0.69568794  0.50554108  0.19239761    -0.27600
C488        C  0.68740178  0.52443282  0.20497766     0.18500
C489        C  0.62760973  0.50361990  0.12391462     0.12400
C490        C  0.64574432  0.46556463  0.09378191    -0.11900
H491        H  0.68866152  0.47252046  0.14611454     0.12700
C492        C  0.70227879  0.54677758  0.24067823    -0.22800
H493        H  0.65814343  0.53731999  0.19200201     0.08400
C494        C  0.60089519  0.48630320  0.14023959     0.04700
C495        C  0.57908815  0.48548400  0.11569143    -0.20000
C496        C  0.58368812  0.50204453  0.07614665    -0.12300
C497        C  0.61048827  0.52002021  0.06065573     0.13400
C498        C  0.63223755  0.52050079  0.08482168    -0.22700
C499        C  0.59549887  0.46896423  0.18363559    -0.05800
H500        H  0.55838611  0.47196490  0.12738920     0.14900
C501        C  0.61680007  0.53863534  0.01871862    -0.16000
H502        H  0.65291441  0.53390671  0.07288638     0.09300
H503        H  0.68883403  0.54340868  0.27140538     0.07100
H504        H  0.70784249  0.56669575  0.22433433     0.08300
H505        H  0.72146541  0.54829251  0.25331521     0.07400
H506        H  0.64675980  0.47635855  0.06047334     0.02200
H507        H  0.62407926  0.45178864  0.10319754     0.02700
H508        H  0.65527966  0.45287696  0.08747536     0.06200
H509        H  0.57338505  0.45667887  0.19145608     0.05200
H510        H  0.60574978  0.48220312  0.21454512    -0.00600
H511        H  0.60342303  0.45479939  0.17864458     0.00900
H512        H  0.62971645  0.56009910  0.03017496     0.04600
H513        H  0.59833184  0.53671572  0.00163757     0.06500
H514        H  0.62804870  0.53389649  0.99185926     0.07400
C515        C  0.71261139  0.49071455  0.41908771    -0.22200
C516        C  0.73796603  0.50342814  0.44156829     0.09700
C517        C  0.76197269  0.51369253  0.41472681     0.10100
C518        C  0.76006239  0.51111195  0.36549651    -0.17200
C519        C  0.73466111  0.49831209  0.34253796    -0.27600
C520        C  0.71050036  0.48751703  0.36998128     0.18500
C521        C  0.73866422  0.50436146  0.49356282     0.12400
C522        C  0.78954266  0.52757185  0.43806618    -0.11900
H523        H  0.77857642  0.51956975  0.34477386     0.12700
C524        C  0.68214393  0.47143085  0.34973471    -0.22800
H525        H  0.69426074  0.48249400  0.44027556     0.08400
C526        C  0.73678224  0.52476620  0.51864869     0.04700
C527        C  0.73631201  0.52395170  0.56811151    -0.20000
C528        C  0.73770574  0.50318380  0.59272197    -0.12300
C529        C  0.73904698  0.48243130  0.56733839     0.13400
C530        C  0.73985886  0.48353520  0.51798767    -0.22700
C531        C  0.73541884  0.54736135  0.49315032    -0.05800
H532        H  0.73512467  0.53972065  0.58770109     0.14900
C533        C  0.73831624  0.45814909  0.59062445    -0.16000
H534        H  0.74074992  0.46763460  0.49827665     0.09300
H535        H  0.67153428  0.48330811  0.35328685     0.07100
H536        H  0.67049896  0.45206158  0.36959682     0.08300
H537        H  0.68168782  0.46558351  0.31242788     0.07400
H538        H  0.79126059  0.51321239  0.46254499     0.02200
H539        H  0.79227230  0.54552289  0.45823976     0.02700
H540        H  0.80626285  0.53465785  0.41183547     0.06200
H541        H  0.73421970  0.56178448  0.51812724     0.05200
H542        H  0.71711197  0.53871203  0.47014847    -0.00600
H543        H  0.75389426  0.55892309  0.47108444     0.00900
H544        H  0.72117869  0.43917783  0.57577921     0.04600
H545        H  0.73515052  0.45729587  0.62923900     0.06500
H546        H  0.75766634  0.45837674  0.58350183     0.07400
C547        C  0.86403659  0.51737034  0.10615222    -0.22200
C548        C  0.84187573  0.49237201  0.11995148     0.09700
C549        C  0.84181320  0.46803385  0.10990597     0.10100
C550        C  0.86420630  0.46929143  0.08661280    -0.17200
C551        C  0.88677615  0.49435241  0.07343896    -0.27600
C552        C  0.88658461  0.51874793  0.08318175     0.18500
C553        C  0.81918543  0.49232648  0.14566349     0.12400
C554        C  0.81833318  0.44081608  0.12441411    -0.11900
H555        H  0.86423410  0.45057698  0.07915939     0.12700
C556        C  0.90955176  0.54621508  0.06838115    -0.22800
H557        H  0.86369373  0.53591549  0.11373790     0.08400
C558        C  0.82178334  0.49990622  0.19350758     0.04700
C559        C  0.80017782  0.50058918  0.21606430    -0.20000
C560        C  0.77586727  0.49381926  0.19200092    -0.12300
C561        C  0.77310740  0.48544862  0.14399957     0.13400
C562        C  0.79492173  0.48497339  0.12158223    -0.22700
C563        C  0.84729118  0.50701387  0.22089087    -0.05800
H564        H  0.80255961  0.50687962  0.25266712     0.14900
C565        C  0.74731541  0.47639716  0.11600937    -0.16000
H566        H  0.79317609  0.47899651  0.08484785     0.09300
H567        H  0.92835329  0.55096799  0.08799942     0.07100
H568        H  0.91306340  0.54631188  0.02983406     0.08300
H569        H  0.90498880  0.56271272  0.07600871     0.07400
H570        H  0.79938091  0.43733313  0.10673058     0.02200
H571        H  0.81557538  0.44031310  0.16325596     0.02700
H572        H  0.82178901  0.42385695  0.11455200     0.06200
H573        H  0.84573806  0.51189846  0.25828645     0.05200
H574        H  0.86499826  0.52502882  0.20492549    -0.00600
H575        H  0.85092850  0.48952501  0.22036798     0.00900
H576        H  0.74836659  0.46855895  0.08064719     0.04600
H577        H  0.74388892  0.49378629  0.11015481     0.06500
H578        H  0.72972958  0.45974368  0.13495000     0.07400
C579        C  0.62285411  0.13112510  0.06779085    -0.22200
C580        C  0.62944739  0.12720393  0.11362967     0.09700
C581        C  0.61436356  0.10147032  0.13524039     0.10100
C582        C  0.59254114  0.08030786  0.11075516    -0.17200
C583        C  0.58515925  0.08431009  0.06529502    -0.27600
C584        C  0.60101423  0.11007974  0.04311084     0.18500
C585        C  0.65138075  0.15076596  0.13913648     0.12400
C586        C  0.62126716  0.09634205  0.18416178    -0.11900
H587        H  0.58072318  0.06071052  0.12786592     0.12700
C588        C  0.59564651  0.11572920  0.99331032    -0.22800
H589        H  0.63463863  0.15100862  0.05158274     0.08400
C590        C  0.67910238  0.16154483  0.12771029     0.04700
C591        C  0.69896133  0.18393866  0.15316626    -0.20000
C592        C  0.69171963  0.19588826  0.18955094    -0.12300
C593        C  0.66378051  0.18577990  0.19927141     0.13400
C594        C  0.64404874  0.16305597  0.17452620    -0.22700
C595        C  0.68775325  0.14902386  0.08955247    -0.05800
H596        H  0.72030997  0.19173822  0.14538860     0.14900
C597        C  0.65391186  0.19919342  0.23348177    -0.16000
H598        H  0.62265597  0.15520330  0.18211653     0.09300
H599        H  0.61155996  0.13614172  0.98088495     0.07100
H600        H  0.57592492  0.11533674  0.99138221     0.08300
H601        H  0.59551234  0.10040809  0.96882179     0.07400
H602        H  0.61874487  0.10958451  0.20998654     0.02200
H603        H  0.64266712  0.10075044  0.18507457     0.02700
H604        H  0.60787195  0.07487760  0.19528558     0.06200
H605        H  0.71026636  0.15942485  0.08624658     0.05200
H606        H  0.67936919  0.15059143  0.05503632    -0.00600
H607        H  0.68015307  0.12725924  0.09780383     0.00900
H608        H  0.63801707  0.20227138  0.21638061     0.04600
H609        H  0.67028472  0.21958828  0.24422732     0.06500
H610        H  0.64503047  0.18606122  0.26504330     0.07400
C611        C  0.82899675  0.31676530  0.19514488    -0.22200
C612        C  0.82612629  0.32138342  0.14759796     0.09700
C613        C  0.80130441  0.30476328  0.12426117     0.10100
C614        C  0.77969979  0.28370588  0.14916950    -0.17200
C615        C  0.78198719  0.27917815  0.19743203    -0.27600
C616        C  0.80726553  0.29617050  0.22075610     0.18500
C617        C  0.84881346  0.34491411  0.12363127     0.12400
C618        C  0.79739471  0.30981511  0.07338748    -0.11900
H619        H  0.76064010  0.27119124  0.13084886     0.12700
C620        C  0.81201704  0.29323396  0.27232754    -0.22800
H621        H  0.84824789  0.32990959  0.21255462     0.08400
C622        C  0.85276772  0.37134104  0.12922602     0.04700
C623        C  0.87376335  0.39299900  0.10437167    -0.20000
C624        C  0.89089895  0.38878520  0.07435277    -0.12300
C625        C  0.88696301  0.36228118  0.06870047     0.13400
C626        C  0.86597681  0.34063360  0.09376748    -0.22700
C627        C  0.83457565  0.37658034  0.16088106    -0.05800
H628        H  0.87690555  0.41336990  0.10844667     0.14900
C629        C  0.90376465  0.35593584  0.03545516    -0.16000
H630        H  0.86264633  0.32020891  0.08937237     0.09300
H631        H  0.79865220  0.29773818  0.29451600     0.07100
H632        H  0.83330991  0.30766835  0.28322381     0.08300
H633        H  0.80814727  0.27235999  0.27944824     0.07400
H634        H  0.81220142  0.30769072  0.05084498     0.02200
H635        H  0.80062209  0.33069769  0.06942325     0.02700
H636        H  0.77656937  0.29519846  0.06059842     0.06200
H637        H  0.84052495  0.39843096  0.16118388     0.05200
H638        H  0.83588526  0.37052541  0.19762424    -0.00600
H639        H  0.81317939  0.36463682  0.14842562     0.00900
H640        H  0.91454278  0.34738105  0.05567733     0.04600
H641        H  0.91911528  0.37398011  0.01573486     0.06500
H642        H  0.89016716  0.34065604  0.00913380     0.07400
C643        C  0.67384960  0.15712736  0.80949477    -0.22200
C644        C  0.64969558  0.14291389  0.78359401     0.09700
C645        C  0.64881723  0.14996824  0.73625448     0.10100
C646        C  0.67230972  0.17117921  0.71574424    -0.17200
C647        C  0.69678704  0.18565215  0.74137164    -0.27600
C648        C  0.69748856  0.17841549  0.78915117     0.18500
C649        C  0.62540613  0.12100658  0.80722085     0.12400
C650        C  0.62321892  0.13491031  0.70717760    -0.11900
H651        H  0.67136702  0.17656782  0.67936737     0.12700
C652        C  0.72289685  0.19237068  0.81897933    -0.22800
H653        H  0.67410218  0.15150177  0.84600030     0.08400
C654        C  0.62303583  0.09556492  0.81706262     0.04700
C655        C  0.59981552  0.07567745  0.84047684    -0.20000
C656        C  0.57898396  0.08069797  0.85454989    -0.12300
C657        C  0.58141696  0.10633235  0.84429354     0.13400
C658        C  0.60465378  0.12610061  0.82067943    -0.22700
C659        C  0.64484872  0.08931038  0.80243929    -0.05800
H660        H  0.59812985  0.05620622  0.84846477     0.14900
C661        C  0.55955584  0.11299579  0.85690170    -0.16000
H662        H  0.60681410  0.14579746  0.81287201     0.09300
H663        H  0.71984023  0.18272456  0.85427580     0.07100
H664        H  0.72874092  0.21394597  0.82484292     0.08300
H665        H  0.73973563  0.19117498  0.80139008     0.07400
H666        H  0.60673332  0.13747932  0.72283795     0.02200
H667        H  0.61669336  0.11292386  0.70611030     0.02700
H668        H  0.62633810  0.14255525  0.67029913     0.06200
H669        H  0.63946382  0.06821859  0.81206150     0.05200
H670        H  0.66434543  0.10346673  0.82017988    -0.00600
H671        H  0.64769501  0.09156041  0.76360851     0.00900
H672        H  0.56418725  0.13315726  0.84286897     0.04600
H673        H  0.55785239  0.11377764  0.89579533     0.06500
H674        H  0.53973275  0.09746636  0.84174487     0.07400
C675        C  0.71327042  0.22752074  0.42110065    -0.22200
C676        C  0.73727513  0.23148752  0.44227506     0.09700
C677        C  0.76000954  0.23719092  0.41431625     0.10100
C678        C  0.75802866  0.23833903  0.36523809    -0.17200
C679        C  0.73402446  0.23449063  0.34362703    -0.27600
C680        C  0.71156636  0.22970951  0.37213518     0.18500
C681        C  0.73854270  0.23057363  0.49404829     0.12400
C682        C  0.78637706  0.24235288  0.43636718    -0.11900
H683        H  0.77533966  0.24222139  0.34359161     0.12700
C684        C  0.68632444  0.22868187  0.35294260    -0.22800
H685        H  0.69611977  0.22374808  0.44316019     0.08400
C686        C  0.74510057  0.25368377  0.52160558     0.04700
C687        C  0.74703371  0.25215935  0.57060369    -0.20000
C688        C  0.74215818  0.22794049  0.59255707    -0.12300
C689        C  0.73571032  0.20476869  0.56467365     0.13400
C690        C  0.73378369  0.20639948  0.51563641    -0.22700
C691        C  0.74983547  0.27981742  0.49929841    -0.05800
H692        H  0.75171105  0.26978954  0.59202411     0.14900
C693        C  0.73171595  0.17838985  0.58475695    -0.16000
H694        H  0.72899092  0.18883123  0.49393063     0.09300
H695        H  0.68219670  0.24304565  0.37294536     0.07100
H696        H  0.66865667  0.20779306  0.35678151     0.08300
H697        H  0.68851601  0.23506428  0.31569152     0.07400
H698        H  0.78295926  0.22424077  0.45691085     0.02200
H699        H  0.79426509  0.26019385  0.46029751     0.02700
H700        H  0.80218093  0.24662552  0.40933563     0.06200
H701        H  0.75508136  0.29600955  0.52601011     0.05200
H702        H  0.73111572  0.27627011  0.48061566    -0.00600
H703        H  0.76686218  0.28723341  0.47367215     0.00900
H704        H  0.71037562  0.16197967  0.57872909     0.04600
H705        H  0.73630020  0.17946458  0.62291210     0.06500
H706        H  0.74560307  0.17283579  0.56666242     0.07400
C707        C  0.82365575  0.29343131  0.79273731    -0.22200
C708        C  0.82562320  0.31891646  0.78683330     0.09700
C709        C  0.80662062  0.32123252  0.75774632     0.10100
C710        C  0.78616392  0.29799469  0.73511740    -0.17200
C711        C  0.78404567  0.27251883  0.74146480    -0.27600
C712        C  0.80299387  0.27011083  0.77053348     0.18500
C713        C  0.84755073  0.34288656  0.81170984     0.12400
C714        C  0.80750271  0.34803391  0.75134840    -0.11900
H715        H  0.77154550  0.29962722  0.71265052     0.12700
C716        C  0.80247927  0.24353600  0.77788866    -0.22800
H717        H  0.83843636  0.29176162  0.81467502     0.08400
C718        C  0.84687075  0.34599437  0.86100937     0.04700
C719        C  0.86773737  0.36938896  0.88276159    -0.20000
C720        C  0.88905083  0.38998084  0.85633167    -0.12300
C721        C  0.88907699  0.38727068  0.80662104     0.13400
C722        C  0.86880184  0.36336880  0.78523190    -0.22700
C723        C  0.82389512  0.32491389  0.89057136    -0.05800
H724        H  0.86754635  0.37151175  0.92075631     0.14900
C725        C  0.90904037  0.40961737  0.77465015    -0.16000
H726        H  0.86906039  0.36106886  0.74728104     0.09300
H727        H  0.79943889  0.23809181  0.81591460     0.07100
H728        H  0.82219696  0.24574288  0.76644679     0.08300
H729        H  0.78613612  0.22643534  0.75772206     0.07400
H730        H  0.82682455  0.36297585  0.73409390     0.02200
H731        H  0.80594074  0.35602870  0.78622773     0.02700
H732        H  0.79047419  0.34590998  0.72889123     0.06200
H733        H  0.82618563  0.33090573  0.92832792     0.05200
H734        H  0.82340973  0.30516494  0.88837135    -0.00600
H735        H  0.80421594  0.32229000  0.87771820     0.00900
H736        H  0.92186982  0.40281613  0.75631057     0.04600
H737        H  0.92240414  0.42888609  0.79343434     0.06500
H738        H  0.89766237  0.41429528  0.74781288     0.07400
C739        C  0.33490856  0.45791791  0.83495880    -0.22200
C740        C  0.33868496  0.48215130  0.81479168     0.09700
C741        C  0.36437358  0.50602843  0.81757370     0.10100
C742        C  0.38571915  0.50521651  0.84096627    -0.17200
C743        C  0.38208335  0.48101971  0.86112068    -0.27600
C744        C  0.35637677  0.45702924  0.85813386     0.18500
C745        C  0.31556044  0.48227456  0.79077690     0.12400
C746        C  0.36934760  0.53227738  0.79537629    -0.11900
H747        H  0.40547245  0.52356029  0.84328706     0.12700
C748        C  0.35121865  0.43083441  0.88079778    -0.22800
H749        H  0.31504216  0.43972683  0.83276128     0.08400
C750        C  0.30814145  0.47262003  0.74429739     0.04700
C751        C  0.28733293  0.47488537  0.72180669    -0.20000
C752        C  0.27367629  0.48663378  0.74460019    -0.12300
C753        C  0.28104775  0.49603794  0.79172822     0.13400
C754        C  0.30184444  0.49359562  0.81412360    -0.22700
C755        C  0.32260166  0.46047303  0.71809226    -0.05800
H756        H  0.28179662  0.46747918  0.68597442     0.14900
C757        C  0.26810959  0.50965500  0.81828330    -0.16000
H758        H  0.30788537  0.50104671  0.84984095     0.09300
H759        H  0.32970336  0.41442943  0.87647099     0.07100
H760        H  0.35569833  0.43404594  0.91916798     0.08300
H761        H  0.36429738  0.42375449  0.86431388     0.07400
H762        H  0.35596697  0.53898783  0.81187994     0.02200
H763        H  0.36496705  0.52922905  0.75696724     0.02700
H764        H  0.39078621  0.54881083  0.79995449     0.06200
H765        H  0.31450343  0.45423596  0.68174693     0.05200
H766        H  0.31995647  0.44218433  0.73707774    -0.00600
H767        H  0.34464902  0.47564335  0.71553489     0.00900
H768        H  0.27782758  0.51726930  0.85326548     0.04600
H769        H  0.24626319  0.49494210  0.82470997     0.06500
H770        H  0.27028430  0.52734572  0.79784776     0.07400
C771        C  0.15052673  0.49872503  0.74638020    -0.22200
C772        C  0.14357137  0.48585775  0.79038568     0.09700
C773        C  0.15853299  0.47426092  0.80887671     0.10100
C774        C  0.18055585  0.47627322  0.78306741    -0.17200
C775        C  0.18794146  0.48943487  0.73887307    -0.27600
C776        C  0.17250667  0.50081831  0.72035127     0.18500
C777        C  0.12064871  0.48514729  0.81648120     0.12400
C778        C  0.15148695  0.46006916  0.85604965    -0.11900
H779        H  0.19193674  0.46727349  0.79753227     0.12700
C780        C  0.17928264  0.51605425  0.67421831    -0.22800
H781        H  0.13870480  0.50741210  0.73253758     0.08400
C782        C  0.12318170  0.50871980  0.83777552     0.04700
C783        C  0.10068326  0.50727685  0.86078037    -0.20000
C784        C  0.07539207  0.48296829  0.86245485    -0.12300
C785        C  0.07313031  0.45913823  0.84169162     0.13400
C786        C  0.09582342  0.46066454  0.81887961    -0.22700
C787        C  0.14967987  0.53538257  0.83663826    -0.05800
H788        H  0.10290667  0.52547545  0.87725235     0.14900
C789        C  0.04736800  0.43185404  0.84424366    -0.16000
H790        H  0.09418982  0.44268265  0.80238981     0.09300
H791        H  0.16580525  0.52462801  0.66704877     0.07100
H792        H  0.17655877  0.50219786  0.64453031     0.08300
H793        H  0.20050750  0.53331289  0.67537004     0.07400
H794        H  0.13056785  0.44223091  0.85501899     0.02200
H795        H  0.15264991  0.47434641  0.88391059     0.02700
H796        H  0.16563588  0.45265094  0.86573304     0.06200
H797        H  0.14835984  0.55153203  0.85652517     0.05200
H798        H  0.15519016  0.54246458  0.79967085    -0.00600
H799        H  0.16607933  0.53274973  0.85271623     0.00900
H800        H  0.03092428  0.43233169  0.82376265     0.04600
H801        H  0.04107126  0.42653839  0.88162243     0.06500
H802        H  0.05018820  0.41537935  0.82915471     0.07400
C803        C  0.23367372  0.51240250  0.51547206    -0.22200
C804        C  0.23679356  0.49234920  0.49237283     0.09700
C805        C  0.24088552  0.47368288  0.51902388     0.10100
C806        C  0.24082019  0.47493459  0.56848827    -0.17200
C807        C  0.23708370  0.49463523  0.59182071    -0.27600
C808        C  0.23432047  0.51416512  0.56487216     0.18500
C809        C  0.23548206  0.49119596  0.44018361     0.12400
C810        C  0.24517986  0.45241696  0.49523667    -0.11900
H811        H  0.24323633  0.46016098  0.58908779     0.12700
C812        C  0.23334844  0.53785873  0.58662756    -0.22800
H813        H  0.23110495  0.52703869  0.49472111     0.08400
C814        C  0.21051619  0.47563321  0.41639891     0.04700
C815        C  0.21013080  0.47509351  0.36689676    -0.20000
C816        C  0.23417072  0.48973910  0.34056217    -0.12300
C817        C  0.25920061  0.50570380  0.36461543     0.13400
C818        C  0.25947847  0.50622680  0.41421460    -0.22700
C819        C  0.18429669  0.45970818  0.44337036    -0.05800
H820        H  0.19096031  0.46287121  0.34864896     0.14900
C821        C  0.28551609  0.52292210  0.33847009    -0.16000
H822        H  0.27849322  0.51839148  0.43294443     0.09300
H823        H  0.21331340  0.53612041  0.57920601     0.07100
H824        H  0.24962147  0.55712550  0.57099641     0.08300
H825        H  0.23689015  0.53940299  0.62518245     0.07400
H826        H  0.26360208  0.46246817  0.47262819     0.02200
H827        H  0.22726239  0.43907310  0.47301874     0.02700
H828        H  0.24805720  0.43942307  0.52129623     0.06200
H829        H  0.16662946  0.44833951  0.41940388     0.05200
H830        H  0.18052365  0.47381018  0.46490795    -0.00600
H831        H  0.18560463  0.44480217  0.46704245     0.00900
H832        H  0.28320498  0.53685211  0.31378114     0.04600
H833        H  0.29130563  0.50978353  0.31854830     0.06500
H834        H  0.30254531  0.53554805  0.36294758     0.07400
C835        C  0.33682182  0.48001055  0.06774301    -0.22200
C836        C  0.33347786  0.47468611  0.11621575     0.09700
C837        C  0.35113138  0.46810735  0.14054846     0.10100
C838        C  0.37276967  0.46842511  0.11612613    -0.17200
C839        C  0.37701974  0.47506338  0.06792222    -0.27600
C840        C  0.35803102  0.47973619  0.04295728     0.18500
C841        C  0.31161619  0.47662099  0.14094942     0.12400
C842        C  0.34732565  0.46113704  0.19233459    -0.11900
H843        H  0.38697644  0.46438638  0.13515200     0.12700
C844        C  0.35877386  0.48353365  0.99017919    -0.22800
H845        H  0.32268404  0.48431445  0.04908655     0.08400
C846        C  0.31677851  0.50094947  0.16323973     0.04700
C847        C  0.29568536  0.50163919  0.18773430    -0.20000
C848        C  0.26944223  0.47881012  0.18920476    -0.12300
C849        C  0.26413308  0.45460514  0.16587611     0.13400
C850        C  0.28537407  0.45385224  0.14195255    -0.22700
C851        C  0.34440658  0.52624204  0.16048887    -0.05800
H852        H  0.29957246  0.52018837  0.20537619     0.14900
C853        C  0.23667823  0.42904974  0.16656008    -0.16000
H854        H  0.28154728  0.43528170  0.12445626     0.09300
H855        H  0.36338926  0.50453691  0.98181004     0.07100
H856        H  0.33861010  0.46888264  0.97492685     0.08300
H857        H  0.37377558  0.47956371  0.97248475     0.07400
H858        H  0.32695777  0.44298828  0.19821851     0.02200
H859        H  0.34887542  0.47846704  0.21292744     0.02700
H860        H  0.36295295  0.45650875  0.20589418     0.06200
H861        H  0.34488561  0.54354895  0.17958918     0.05200
H862        H  0.34969160  0.53229137  0.12300450    -0.00600
H863        H  0.36005864  0.52237408  0.17630580     0.00900
H864        H  0.22850360  0.42395708  0.13006446     0.04600
H865        H  0.22172344  0.43090142  0.18888540     0.06500
H866        H  0.23879229  0.41196422  0.18083266     0.07400
C867        C  0.09777794  0.48326610  0.14714289    -0.22200
C868        C  0.12029069  0.48700715  0.12084589     0.09700
C869        C  0.12094898  0.49138915  0.07173539     0.10100
C870        C  0.09899494  0.49195990  0.05001461    -0.17200
C871        C  0.07635651  0.48817532  0.07622943    -0.27600
C872        C  0.07602390  0.48434798  0.12573543     0.18500
C873        C  0.14308659  0.48658892  0.14570307     0.12400
C874        C  0.14486569  0.49564055  0.04233018    -0.11900
H875        H  0.09932857  0.49500663  0.01217817     0.12700
C876        C  0.05392613  0.48262477  0.15757507    -0.22800
H877        H  0.09750363  0.48012171  0.18494687     0.08400
C878        C  0.16160484  0.50861613  0.17395480     0.04700
C879        C  0.18258031  0.50701607  0.19749030    -0.20000
C880        C  0.18546521  0.48394179  0.19324450    -0.12300
C881        C  0.16666604  0.46177064  0.16530002     0.13400
C882        C  0.14585722  0.46350550  0.14160486    -0.22700
C883        C  0.15947621  0.53393360  0.17858696    -0.05800
H884        H  0.19701848  0.52398702  0.21885721     0.14900
C885        C  0.16715932  0.43556303  0.16112363    -0.16000
H886        H  0.13133550  0.44648553  0.12040041     0.09300
H887        H  0.06327849  0.49779893  0.18639997     0.07100
H888        H  0.04254435  0.46197888  0.17338516     0.08300
H889        H  0.03940003  0.48718903  0.13939078     0.07400
H890        H  0.14716885  0.47736707  0.04434921     0.02200
H891        H  0.16373891  0.51359144  0.05556524     0.02700
H892        H  0.14225769  0.49922023  0.00461385     0.06200
H893        H  0.17602206  0.54950537  0.20096854     0.05200
H894        H  0.13973709  0.52885911  0.19498072    -0.00600
H895        H  0.16087502  0.54294308  0.14316584     0.00900
H896        H  0.14699709  0.41824634  0.17135933     0.04600
H897        H  0.18243825  0.43484080  0.18439754     0.06500
H898        H  0.17150038  0.43270314  0.12404695     0.07400
C899        C  0.11164876  0.63993386  0.06523028    -0.22200
C900        C  0.11452048  0.63909542  0.11427683     0.09700
C901        C  0.09624532  0.61549563  0.13963712     0.10100
C902        C  0.07541942  0.59331320  0.11530176    -0.17200
C903        C  0.07267897  0.59400723  0.06620978    -0.27600
C904        C  0.09098653  0.61766964  0.04074749     0.18500
C905        C  0.13671748  0.66315543  0.13845597     0.12400
C906        C  0.09909857  0.61339306  0.19214335    -0.11900
H907        H  0.06145359  0.57507884  0.13457266     0.12700
C908        C  0.08892662  0.62052426  0.98819744    -0.22800
H909        H  0.12550822  0.65821531  0.04595607     0.08400
C910        C  0.16429901  0.67050203  0.13284183     0.04700
C911        C  0.18443302  0.69296261  0.15765128    -0.20000
C912        C  0.17758247  0.70796490  0.18831015    -0.12300
C913        C  0.15004447  0.70102476  0.19311792     0.13400
C914        C  0.12995763  0.67866677  0.16806444    -0.22700
C915        C  0.17245825  0.65418482  0.10197550    -0.05800
H916        H  0.20559739  0.69838779  0.15418613     0.14900
C917        C  0.14116111  0.71706989  0.22321438    -0.16000
H918        H  0.10880690  0.67327199  0.17161214     0.09300
H919        H  0.10759650  0.62313077  0.97073946     0.07100
H920        H  0.08704991  0.63873535  0.98073579     0.08300
H921        H  0.07105180  0.60280258  0.97215590     0.07400
H922        H  0.09607045  0.62883443  0.21080789     0.02200
H923        H  0.11969684  0.61673194  0.20037778     0.02700
H924        H  0.08384067  0.59305599  0.20592936     0.06200
H925        H  0.19476393  0.66214369  0.10320662     0.05200
H926        H  0.16682692  0.65502191  0.06476200    -0.00600
H927        H  0.16200796  0.63267936  0.11402575     0.00900
H928        H  0.12949461  0.72392906  0.20122460     0.04600
H929        H  0.15840370  0.73549699  0.23900148     0.06500
H930        H  0.12785189  0.70395283  0.25211345     0.07400
C931        C  0.29742473  0.81167598  0.12814156    -0.22200
C932        C  0.31269930  0.83605011  0.15282339     0.09700
C933        C  0.30553972  0.83834322  0.19941137     0.10100
C934        C  0.28275615  0.81620828  0.22012698    -0.17200
C935        C  0.26697015  0.79165674  0.19543008    -0.27600
C936        C  0.27478137  0.78932634  0.14873705     0.18500
C937        C  0.33641187  0.85873151  0.12907800     0.12400
C938        C  0.32216470  0.86404420  0.22735755    -0.11900
H939        H  0.27717971  0.81826232  0.25579872     0.12700
C940        C  0.26017887  0.76338136  0.12043304    -0.22800
H941        H  0.30343254  0.81016083  0.09247759     0.08400
C942        C  0.36145921  0.85926462  0.12588491     0.04700
C943        C  0.38300273  0.88043142  0.10104679    -0.20000
C944        C  0.38002491  0.90095062  0.07897871    -0.12300
C945        C  0.35472920  0.90024231  0.08185207     0.13400
C946        C  0.33335593  0.87928209  0.10751199    -0.22700
C947        C  0.36546810  0.83758517  0.14894555    -0.05800
H948        H  0.40240631  0.88112148  0.09917671     0.14900
C949        C  0.34898217  0.92025010  0.05660539    -0.16000
H950        H  0.31388694  0.87850108  0.10959349     0.09300
H951        H  0.27067199  0.76491991  0.08654722     0.07100
H952        H  0.23927882  0.75888579  0.11152143     0.08300
H953        H  0.25941245  0.74625572  0.14072868     0.07400
H954        H  0.32213753  0.88140059  0.20930122     0.02200
H955        H  0.34344871  0.86826754  0.23050118     0.02700
H956        H  0.31393810  0.86239634  0.26350509     0.06200
H957        H  0.38643818  0.84126928  0.14351423     0.05200
H958        H  0.35098926  0.81738183  0.13377117    -0.00600
H959        H  0.36185546  0.83725282  0.18749516     0.00900
H960        H  0.33084201  0.90900541  0.03356688     0.04600
H961        H  0.36588373  0.93456079  0.03364284     0.06500
H962        H  0.34471289  0.93213303  0.08285463     0.07400
C963        C  0.13028522  0.67285073  0.75478569    -0.22200
C964        C  0.13702543  0.66211332  0.79364181     0.09700
C965        C  0.16426446  0.67453946  0.80925950     0.10100
C966        C  0.18435225  0.69714995  0.78466434    -0.17200
C967        C  0.17774405  0.70758064  0.74496389    -0.27600
C968        C  0.15015573  0.69583189  0.73086898     0.18500
C969        C  0.11504675  0.63772716  0.81705364     0.12400
C970        C  0.17209303  0.66396366  0.85174931    -0.11900
H971        H  0.20543311  0.70625624  0.79571111     0.12700
C972        C  0.14062910  0.70741993  0.69220886    -0.22800
H973        H  0.10921266  0.66342257  0.74348132     0.08400
C974        C  0.09558434  0.63928138  0.84575099     0.04700
C975        C  0.07410918  0.61531752  0.86475645    -0.20000
C976        C  0.07218011  0.59002897  0.85681997    -0.12300
C977        C  0.09180779  0.58852331  0.82820374     0.13400
C978        C  0.11294540  0.61244980  0.80849843    -0.22700
C979        C  0.09793372  0.66626792  0.85736403    -0.05800
H980        H  0.05917112  0.61638899  0.88707712     0.14900
C981        C  0.09081035  0.56214180  0.81661245    -0.16000
H982        H  0.12781224  0.61137640  0.78595913     0.09300
H983        H  0.12409702  0.71059232  0.70593178     0.07100
H984        H  0.13256771  0.69291658  0.66222902     0.08300
H985        H  0.15676217  0.72744789  0.67918537     0.07400
H986        H  0.16726961  0.64271711  0.84542655     0.02200
H987        H  0.16066171  0.66448210  0.88311677     0.02700
H988        H  0.19420223  0.67639876  0.85961872     0.06200
H989        H  0.08137678  0.66385192  0.88128170     0.05200
H990        H  0.09675123  0.67637219  0.82462219    -0.00600
H991        H  0.11770717  0.67953974  0.87516887     0.00900
H992        H  0.08943602  0.55917838  0.77777434     0.04600
H993        H  0.07317716  0.54410991  0.83252746     0.06500
H994        H  0.10979853  0.56310357  0.82924238     0.07400
C995        C  0.24158325  0.74976874  0.51637124    -0.22200
C996        C  0.21842393  0.74716823  0.49381792     0.09700
C997        C  0.19605171  0.74367575  0.52076864     0.10100
C998        C  0.19754663  0.74330139  0.57011837    -0.17200
C999        C  0.22091701  0.74635970  0.59292436    -0.27600
C1000       C  0.24306822  0.74913298  0.56566564     0.18500
C1001       C  0.21796655  0.74768393  0.44177277     0.12400
C1002       C  0.17083064  0.74070395  0.49741238    -0.11900
H1003       H  0.18058961  0.74112652  0.59105580     0.12700
C1004       C  0.26808154  0.75040969  0.58685851    -0.22800
H1005       H  0.25849464  0.75196099  0.49525054     0.08400
C1006       C  0.23032859  0.77239813  0.41659007     0.04700
C1007       C  0.23035804  0.77182898  0.36712809    -0.20000
C1008       C  0.21801797  0.74706697  0.34227047    -0.12300
C1009       C  0.20534053  0.72221612  0.36794983     0.13400
C1010       C  0.20560294  0.72295150  0.41742571    -0.22700
C1011       C  0.24331810  0.79930117  0.44202759    -0.05800
H1012       H  0.23990371  0.79086539  0.34777100     0.14900
C1013       C  0.19234476  0.69481404  0.34402293    -0.16000
H1014       H  0.19627679  0.70412302  0.43741376     0.09300
H1015       H  0.28622076  0.77039823  0.57855897     0.07100
H1016       H  0.27098802  0.73407908  0.57137952     0.08300
H1017       H  0.26678274  0.74739978  0.62556018     0.07400
H1018       H  0.16160875  0.72242014  0.47443118     0.02200
H1019       H  0.17618715  0.75899205  0.47565402     0.02700
H1020       H  0.15533195  0.73841625  0.52372488     0.06200
H1021       H  0.25177391  0.81671726  0.41702424     0.05200
H1022       H  0.26019220  0.80129395  0.46472580    -0.00600
H1023       H  0.22791669  0.80053093  0.46438681     0.00900
H1024       H  0.18533067  0.67791115  0.36992568     0.04600
H1025       H  0.20728254  0.69366445  0.32027481     0.06500
H1026       H  0.17420460  0.69143526  0.32360882     0.07400
C1027       C  0.31013506  0.83478261  0.74565856    -0.22200
C1028       C  0.30892643  0.83421905  0.79487956     0.09700
C1029       C  0.28628717  0.81311182  0.81800623     0.10100
C1030       C  0.26528628  0.79265739  0.79111764    -0.17200
C1031       C  0.26628502  0.79266524  0.74132587    -0.27600
C1032       C  0.28933077  0.81431501  0.71836172     0.18500
C1033       C  0.33212444  0.85569257  0.82142143     0.12400
C1034       C  0.28448940  0.81204778  0.87109271    -0.11900
H1035       H  0.24805488  0.77648305  0.80953719     0.12700
C1036       C  0.29288731  0.81634644  0.66550349    -0.22800
H1037       H  0.32779947  0.85127780  0.72857746     0.08400
C1038       C  0.35609400  0.85450424  0.82859663     0.04700
C1039       C  0.37793429  0.87570812  0.85286463    -0.20000
C1040       C  0.37641647  0.89820504  0.86957866    -0.12300
C1041       C  0.35207077  0.89904245  0.86307485     0.13400
C1042       C  0.33023496  0.87774231  0.83884196    -0.22700
C1043       C  0.35856919  0.83087624  0.81055289    -0.05800
H1044       H  0.39650349  0.87498272  0.85799038     0.14900
C1045       C  0.34855433  0.92172421  0.88289791    -0.16000
H1046       H  0.31158713  0.87826510  0.83327036     0.09300
H1047       H  0.31217248  0.83469091  0.65472908     0.07100
H1048       H  0.27599531  0.81780233  0.64859848     0.08300
H1049       H  0.29367915  0.79841922  0.65208032     0.07400
H1050       H  0.28469748  0.83050516  0.88456322     0.02200
H1051       H  0.30209549  0.81110547  0.88610240     0.02700
H1052       H  0.26551923  0.79394834  0.88365327     0.06200
H1053       H  0.37869026  0.83316118  0.81923572     0.05200
H1054       H  0.35622896  0.82949191  0.77159557    -0.00600
H1055       H  0.34251974  0.81166188  0.82667647     0.00900
H1056       H  0.32752657  0.91790246  0.87746048     0.04600
H1057       H  0.36261394  0.94120775  0.86513076     0.06500
H1058       H  0.35266916  0.92359988  0.92144844     0.07400
C1059       C  0.50262820  0.62990339  0.81680929    -0.22200
C1060       C  0.47768242  0.62933021  0.81796831     0.09700
C1061       C  0.45533453  0.60816125  0.84161253     0.10100
C1062       C  0.45834256  0.58767497  0.86323909    -0.17200
C1063       C  0.48332691  0.58793264  0.86240250    -0.27600
C1064       C  0.50590693  0.60959413  0.83896056     0.18500
C1065       C  0.47532122  0.65088097  0.79310526     0.12400
C1066       C  0.42843519  0.60739717  0.84459518    -0.11900
H1067       H  0.44088838  0.57131595  0.88094537     0.12700
C1068       C  0.53366117  0.61212043  0.83790650    -0.22800
H1069       H  0.51963197  0.64643840  0.79845616     0.08400
C1070       C  0.48539647  0.67689618  0.81295994     0.04700
C1071       C  0.48408746  0.69712200  0.78662622    -0.20000
C1072       C  0.47237663  0.69173344  0.74128553    -0.12300
C1073       C  0.46102146  0.66505485  0.72256030     0.13400
C1074       C  0.46301372  0.64509984  0.74858912    -0.22700
C1075       C  0.49709660  0.68311072  0.86214185    -0.05800
H1076       H  0.49252415  0.71732199  0.80146375     0.14900
C1077       C  0.44588218  0.65699036  0.67623729    -0.16000
H1078       H  0.45490000  0.62478791  0.73423866     0.09300
H1079       H  0.54087059  0.61245972  0.87449270     0.07100
H1080       H  0.54896311  0.63116860  0.82021507     0.08300
H1081       H  0.53280875  0.59489243  0.81799574     0.07400
H1082       H  0.42011076  0.60618073  0.80864510     0.02200
H1083       H  0.43132080  0.62609550  0.86231449     0.02700
H1084       H  0.41316985  0.58953398  0.86503135     0.06200
H1085       H  0.50367399  0.70437900  0.87258335     0.05200
H1086       H  0.51504132  0.68024882  0.86425465    -0.00600
H1087       H  0.48145048  0.66923335  0.88770561     0.00900
H1088       H  0.46004960  0.66748192  0.64656247     0.04600
H1089       H  0.42944540  0.66220619  0.67646870     0.06500
H1090       H  0.43626291  0.63476255  0.66976195     0.07400
C1091       C  0.47723129  0.80559659  0.81235945    -0.22200
C1092       C  0.47220443  0.82349847  0.78613234     0.09700
C1093       C  0.46639056  0.81887603  0.73763447     0.10100
C1094       C  0.46606450  0.79646577  0.71614937    -0.17200
C1095       C  0.47149633  0.77843235  0.74195900    -0.27600
C1096       C  0.47690150  0.78307151  0.79122881     0.18500
C1097       C  0.47383454  0.84738378  0.81021489     0.12400
C1098       C  0.46059010  0.83766814  0.70861624    -0.11900
H1099       H  0.46159272  0.79315880  0.67876362     0.12700
C1100       C  0.48302437  0.76514250  0.82217856    -0.22800
H1101       H  0.48167719  0.80949629  0.84969405     0.08400
C1102       C  0.45158132  0.84550134  0.83533043     0.04700
C1103       C  0.45437326  0.86860920  0.85843910    -0.20000
C1104       C  0.47906966  0.89366811  0.85751898    -0.12300
C1105       C  0.50150207  0.89525681  0.83238409     0.13400
C1106       C  0.49844966  0.87208041  0.80899684    -0.22700
C1107       C  0.42494827  0.81905499  0.83780384    -0.05800
H1108       H  0.43703285  0.86698897  0.87732948     0.14900
C1109       C  0.52902695  0.92078317  0.83103698    -0.16000
H1110       H  0.51547533  0.87308432  0.78990407     0.09300
H1111       H  0.46513430  0.74425799  0.82344474     0.07100
H1112       H  0.48756420  0.77264632  0.85911107     0.08300
H1113       H  0.50116449  0.76476157  0.80857622     0.07400
H1114       H  0.47846147  0.85857784  0.70948651     0.02200
H1115       H  0.44260558  0.83801008  0.72316341     0.02700
H1116       H  0.45625444  0.83108129  0.67118517     0.06200
H1117       H  0.40963838  0.82099230  0.85921725     0.05200
H1118       H  0.42817955  0.80313558  0.85429442    -0.00600
H1119       H  0.41658498  0.81246589  0.80171303     0.00900
H1120       H  0.54435155  0.91753300  0.81231531     0.04600
H1121       H  0.53656380  0.92739227  0.86754248     0.06500
H1122       H  0.52766536  0.93715893  0.81198771     0.07400
C1123       C  0.47366255  0.65577141  0.17697750    -0.22200
C1124       C  0.49323659  0.66076969  0.14239370     0.09700
C1125       C  0.51362862  0.68772747  0.13232753     0.10100
C1126       C  0.51423971  0.70915669  0.15783014    -0.17200
C1127       C  0.49490875  0.70417726  0.19298974    -0.27600
C1128       C  0.47397143  0.67715921  0.20208147     0.18500
C1129       C  0.49220270  0.63732668  0.11784164     0.12400
C1130       C  0.53500907  0.69382171  0.09541320    -0.11900
H1131       H  0.53014304  0.72990056  0.15082493     0.12700
C1132       C  0.45101728  0.67007800  0.23629201    -0.22800
H1133       H  0.45782226  0.63499877  0.18401232     0.08400
C1134       C  0.50091897  0.62087405  0.14038898     0.04700
C1135       C  0.49914871  0.59853180  0.11626478    -0.20000
C1136       C  0.48879996  0.59215167  0.07004697    -0.12300
C1137       C  0.48065392  0.60919234  0.04702508     0.13400
C1138       C  0.48233359  0.63148255  0.07149445    -0.22700
C1139       C  0.51233178  0.62706500  0.18977593    -0.05800
H1140       H  0.50556973  0.58573008  0.13395915     0.14900
C1141       C  0.47111929  0.60478064  0.99637595    -0.16000
H1142       H  0.47593132  0.64448329  0.05446120     0.09300
H1143       H  0.45214091  0.65770326  0.26566227     0.07100
H1144       H  0.43123589  0.65797992  0.21777415     0.08300
H1145       H  0.45106916  0.68808919  0.25128638     0.07400
H1146       H  0.52522923  0.68677292  0.06036254     0.02200
H1147       H  0.54642549  0.68324609  0.10441833     0.02700
H1148       H  0.54980346  0.71597343  0.09284517     0.06200
H1149       H  0.51919619  0.61277702  0.20145708     0.05200
H1150       H  0.49653209  0.62533953  0.21483002    -0.00600
H1151       H  0.53008908  0.64804075  0.19122698     0.00900
H1152       H  0.45148771  0.58544907  0.99291494     0.04600
H1153       H  0.48669081  0.60426529  0.97340653     0.06500
H1154       H  0.46779573  0.62137236  0.98336371     0.07400
C1155       C  0.51157339  0.82376567  0.12557661    -0.22200
C1156       C  0.49966974  0.83710227  0.14829464     0.09700
C1157       C  0.48946841  0.82951062  0.19441318     0.10100
C1158       C  0.49102088  0.80831120  0.21671460    -0.17200
C1159       C  0.50227077  0.79422967  0.19382503    -0.27600
C1160       C  0.51304845  0.80236621  0.14764779     0.18500
C1161       C  0.49726999  0.85843002  0.12252654     0.12400
C1162       C  0.47665237  0.84357947  0.21985814    -0.11900
H1163       H  0.48274216  0.80231215  0.25195415     0.12700
C1164       C  0.52659973  0.78920476  0.12153890    -0.22800
H1165       H  0.51947291  0.82999890  0.09015251     0.08400
C1166       C  0.51793517  0.88586814  0.12428193     0.04700
C1167       C  0.51443725  0.90536847  0.09972008    -0.20000
C1168       C  0.49066368  0.89814675  0.07315675    -0.12300
C1169       C  0.46997821  0.87019747  0.07141494     0.13400
C1170       C  0.47368171  0.85086170  0.09623114    -0.22700
C1171       C  0.54363899  0.89450111  0.15217038    -0.05800
H1172       H  0.53056116  0.92643047  0.10142512     0.14900
C1173       C  0.44379189  0.86013965  0.04416454    -0.16000
H1174       H  0.45799943  0.82957317  0.09534794     0.09300
H1175       H  0.54321425  0.78993570  0.14341954     0.07100
H1176       H  0.53568043  0.79977272  0.08772359     0.08300
H1177       H  0.51146655  0.76779642  0.11281189     0.07400
H1178       H  0.45877230  0.84111078  0.19964214     0.02200
H1179       H  0.49165546  0.86558733  0.22353502     0.02700
H1180       H  0.46963974  0.83505565  0.25574747     0.06200
H1181       H  0.55782843  0.91679380  0.14988907     0.05200
H1182       H  0.55428056  0.88401778  0.13837235    -0.00600
H1183       H  0.53860722  0.88909149  0.18990911     0.00900
H1184       H  0.44821791  0.86428024  0.00594290     0.04600
H1185       H  0.43260973  0.87018645  0.05727784     0.06500
H1186       H  0.43006251  0.83784470  0.04814786     0.07400
C1187       C  0.46722493  0.74552671  0.51280630    -0.22200
C1188       C  0.48829232  0.74235816  0.49414344     0.09700
C1189       C  0.50503929  0.73736729  0.52441392     0.10100
C1190       C  0.50015074  0.73547141  0.57311664    -0.17200
C1191       C  0.47907982  0.73871454  0.59206532    -0.27600
C1192       C  0.46210337  0.74340951  0.56140839     0.18500
C1193       C  0.49190294  0.74373666  0.44252529     0.12400
C1194       C  0.52816842  0.73435352  0.50534298    -0.11900
H1195       H  0.51309588  0.73183315  0.59664156     0.12700
C1196       C  0.43767392  0.74496666  0.57798098    -0.22800
H1197       H  0.45426672  0.74903924  0.48907281     0.08400
C1198       C  0.47842936  0.72022279  0.41435580     0.04700
C1199       C  0.48167141  0.72266292  0.36529057    -0.20000
C1200       C  0.49767081  0.74816747  0.34364802    -0.12300
C1201       C  0.51113356  0.77179460  0.37228654     0.13400
C1202       C  0.50811438  0.76915935  0.42145633    -0.22700
C1203       C  0.46027841  0.69266079  0.43606190    -0.05800
H1204       H  0.47111720  0.70455340  0.34367149     0.14900
C1205       C  0.52912447  0.79977119  0.35185803    -0.16000
H1206       H  0.51820194  0.78705321  0.44371125     0.09300
H1207       H  0.41923508  0.72941355  0.55912795     0.07100
H1208       H  0.44062865  0.76541925  0.56988177     0.08300
H1209       H  0.43359287  0.74101043  0.61617006     0.07400
H1210       H  0.54299183  0.75338902  0.48707864     0.02200
H1211       H  0.52032267  0.71721294  0.47993072     0.02700
H1212       H  0.53907939  0.73024136  0.53388721     0.06200
H1213       H  0.45089701  0.67646595  0.40885383     0.05200
H1214       H  0.44362902  0.69294974  0.45610698    -0.00600
H1215       H  0.47224704  0.68733456  0.46039609     0.00900
H1216       H  0.51676169  0.80619662  0.33090753     0.04600
H1217       H  0.54506195  0.79970014  0.32927641     0.06500
H1218       H  0.53954027  0.81527764  0.37986992     0.07400
loop_ 
_geom_bond_atom_site_label_1 
_geom_bond_atom_site_label_2 
_geom_bond_distance 
_geom_bond_site_symmetry_2 
_ccdc_geom_bond_type 
C1            N2   1.357       .  A
C1            N6   1.356       .  A
C1         C1127   1.470       .  S
N2            C3   1.358       .  A
C3            N4   1.356       .  A
C3         C1200   1.482       .  S
N4            C5   1.358       .  A
C5            N6   1.356       .  A
C5         C1159   1.484       .  S
C7            N8   1.355       .  A
C7           N12   1.358       .  A
C7         C1072   1.483       .  S
N8            C9   1.355       .  A
C9           N10   1.358       .  A
C9         C1191   1.473       .  S
N10          C11   1.360       .  A
C11          N12   1.358       .  A
C11        C1095   1.495       .  S
C13          N14   1.357       .  A
C13          N18   1.360       .  A
C13        C1031   1.496       .  S
N14          C15   1.356       .  A
C15          N16   1.355       .  A
C15         C999   1.472       .  S
N16          C17   1.356       .  A
C17          N18   1.357       .  A
C17         C967   1.475       .  S
C19          N20   1.361       .  A
C19          N24   1.356       .  A
C19         C935   1.490       .  S
N20          C21   1.361       .  A
C21          N22   1.356       .  A
C21        C1008   1.484       .  S
N22          C23   1.354       .  A
C23          N24   1.354       .  A
C23         C912   1.470       .  S
C25          N26   1.359       .  A
C25          N30   1.360       .  A
C25         C880   1.477       .  S
N26          C27   1.360       .  A
C27          N28   1.357       .  A
C27         C816   1.483       .  S
N28          C29   1.356       .  A
C29          N30   1.358       .  A
C29         C848   1.471       .  S
C31          N32   1.360       .  A
C31          N36   1.359       .  A
C31         C775   1.492       .  S
N32          C33   1.358       .  A
C33          N34   1.359       .  A
C33         C752   1.489       .  S
N34          C35   1.357       .  A
C35          N36   1.358       .  A
C35         C807   1.478       .  S
C37          N38   1.354       .  A
C37          N42   1.358       .  A
C37         C711   1.467       .  S
N38          C39   1.355       .  A
C39          N40   1.354       .  A
C39         C688   1.470       .  S
N40          C41   1.358       .  A
C41          N42   1.359       .  A
C41         C647   1.487       .  S
C43          N44   1.361       .  A
C43          N48   1.353       .  A
C43         C615   1.494       .  S
N44          C45   1.360       .  A
C45          N46   1.361       .  A
C45         C592   1.481       .  S
N46          C47   1.359       .  A
C47          N48   1.354       .  A
C47         C679   1.476       .  S
C49          N50   1.354       .  A
C49          N54   1.354       .  A
C49         C487   1.468       .  S
N50          C51   1.355       .  A
C51          N52   1.361       .  A
C51         C560   1.489       .  S
N52          C53   1.360       .  A
C53          N54   1.355       .  A
C53         C519   1.480       .  S
C55          N56   1.359       .  A
C55          N60   1.355       .  A
C55         C423   1.480       .  S
N56          C57   1.359       .  A
C57          N58   1.359       .  A
C57         C455   1.494       .  S
N58          C59   1.355       .  A
C59          N60   1.353       .  A
C59         C528   1.470       .  S
C61          N62   1.357       .  A
C61          N66   1.356       .  A
C61         C400   1.473       .  S
N62          C63   1.357       .  A
C63          N64   1.359       .  A
C63         C368   1.473       .  S
N64          C65   1.359       .  A
C65          N66   1.357       .  A
C65         C327   1.477       .  S
C67          N68   1.357       .  A
C67          N72   1.356       .  A
C67         C295   1.484       .  S
N68          C69   1.355       .  A
C69          N70   1.358       .  A
C69         C336   1.484       .  S
N70          C71   1.357       .  A
C71          N72   1.357       .  A
C71         C272   1.476       .  S
O73         Zr85   2.442       .  S
O73          C75   1.289       .  A
O74        Zr111   2.416   1_554  S
O74          C75   1.284       .  A
C75        C1136   1.484       .  S
O76         Zr88   2.437       .  S
O76          C78   1.286       .  A
O77        Zr112   2.414       .  S
O77          C78   1.284       .  A
C78         C432   1.463       .  S
O79         Zr88   2.445       .  S
O79          C81   1.287       .  A
O80        Zr111   2.398       .  S
O80          C81   1.283       .  A
C81        C1063   1.486       .  S
O82         Zr85   2.433       .  S
O82          C84   1.285       .  A
O83        Zr112   2.406   1_554  S
O83          C84   1.282       .  A
C84         C496   1.455       .  S
Zr85         O86   2.436       .  S
Zr85         O87   2.434       .  S
Zr85         O91   2.370   1_554  S
Zr85         O92   2.373   1_554  S
Zr85        O115   2.372       .  S
Zr85        O117   2.372       .  S
O86         H129   0.990       .  S
O87         H128   0.990       .  S
O87         H132   0.990       .  S
Zr88         O89   2.437       .  S
Zr88         O90   2.434       .  S
Zr88         O92   2.368       .  S
Zr88         O91   2.368       .  S
Zr88        O116   2.369       .  S
Zr88        O118   2.376       .  S
O89         H130   0.990       .  S
O89         H133   0.990       .  S
O90         H123   0.990       .  S
O91        Zr111   2.374       .  S
O92        Zr112   2.379       .  S
O92         H119   0.965       .  S
O93        Zr105   2.439       .  S
O93          C95   1.286       .  A
O94        Zr112   2.417   1_554  S
O94          C95   1.285       .  A
C95         C263   1.467       .  S
O96        Zr108   2.448       .  S
O96          C98   1.289       .  A
O97        Zr111   2.409       .  S
O97          C98   1.284       .  A
C98         C743   1.475       .  S
O99        Zr108   2.455       .  S
O99         C101   1.289       .  A
O100       Zr112   2.401       .  S
O100        C101   1.283       .  A
C101        C359   1.490       .  S
O102       Zr105   2.440       .  S
O102        C104   1.288       .  A
O103       Zr111   2.415   1_554  S
O103        C104   1.285       .  A
C104        C839   1.478       .  S
Zr105       O106   2.435       .  S
Zr105       O107   2.435       .  S
Zr105       O113   2.375   1_554  S
Zr105       O114   2.371   1_554  S
Zr105       O117   2.373       .  S
Zr105       O115   2.373       .  S
O106        H126   0.990       .  S
O106        H131   0.990       .  S
O107        H127   0.990       .  S
Zr108       O109   2.433       .  S
Zr108       O110   2.434       .  S
Zr108       O114   2.372       .  S
Zr108       O113   2.367       .  S
Zr108       O118   2.372       .  S
Zr108       O116   2.370       .  S
O109        H125   0.990       .  S
O110        H124   0.990       .  S
O110        H134   0.990       .  S
Zr111       O114   2.373       .  S
Zr111       O116   2.379       .  S
Zr111       O117   2.376   1_556  S
Zr112       O113   2.378       .  S
Zr112       O115   2.375   1_556  S
Zr112       O118   2.375       .  S
O113        H121   0.967       .  S
O116        H120   0.966       .  S
O117        H122   0.966       .  S
O135       Zr147   2.446   1_455  S
O135        C137   1.288       .  A
O136       Zr173   2.416       .  S
O136        C137   1.284       .  A
C137        C976   1.471       .  S
O138       Zr150   2.448       .  S
O138        C140   1.289       .  A
O139       Zr174   2.417   1_554  S
O139        C140   1.286       .  A
C140        C551   1.483       .  S
O141       Zr150   2.446   1_455  S
O141        C143   1.289       .  A
O142       Zr173   2.422   1_554  S
O142        C143   1.286       .  A
C143        C903   1.474       .  S
O144       Zr147   2.432       .  S
O144        C146   1.286       .  A
O145       Zr174   2.414       .  S
O145        C146   1.284       .  A
C146        C464   1.470       .  S
Zr147       O148   2.435       .  S
Zr147       O149   2.434       .  S
Zr147       O153   2.367   1_655  S
Zr147       O154   2.374       .  S
Zr147       O177   2.372       .  S
Zr147       O179   2.370   1_655  S
O148        H191   0.990       .  S
O149        H190   0.990       .  S
O149        H194   0.990       .  S
Zr150       O151   2.435       .  S
Zr150       O152   2.435       .  S
Zr150       O154   2.370   1_554  S
Zr150       O153   2.372   1_654  S
Zr150       O178   2.372   1_655  S
Zr150       O180   2.374       .  S
O151        H192   0.990       .  S
O151        H195   0.990       .  S
O152        H185   0.990       .  S
O153       Zr173   2.375       .  S
O154       Zr174   2.383       .  S
O154        H181   0.966       .  S
O155       Zr167   2.448       .  S
O155        C157   1.289       .  A
O156       Zr174   2.422       .  S
O156        C157   1.286       .  A
C157        C720   1.481       .  S
O158       Zr170   2.446   1_455  S
O158        C160   1.289       .  A
O159       Zr173   2.415   1_554  S
O159        C160   1.285       .  A
C160        C871   1.478       .  S
O161       Zr170   2.440       .  S
O161        C163   1.287       .  A
O162       Zr174   2.419   1_554  S
O162        C163   1.285       .  A
C163        C624   1.467       .  S
O164       Zr167   2.443   1_455  S
O164        C166   1.287       .  A
O165       Zr173   2.414       .  S
O165        C166   1.286       .  A
C166        C784   1.490       .  S
Zr167       O168   2.437       .  S
Zr167       O169   2.434       .  S
Zr167       O175   2.364       .  S
Zr167       O176   2.373   1_655  S
Zr167       O179   2.376   1_655  S
Zr167       O177   2.372       .  S
O168        H188   0.990       .  S
O168        H193   0.990       .  S
O169        H189   0.990       .  S
Zr170       O171   2.434       .  S
Zr170       O172   2.434       .  S
Zr170       O176   2.372   1_654  S
Zr170       O175   2.375   1_554  S
Zr170       O180   2.373       .  S
Zr170       O178   2.371   1_655  S
O171        H187   0.990       .  S
O172        H186   0.990       .  S
O172        H196   0.990       .  S
Zr173       O176   2.379       .  S
Zr173       O178   2.382   1_556  S
Zr173       O179   2.381       .  S
Zr174       O175   2.378       .  S
Zr174       O177   2.376       .  S
Zr174       O180   2.378   1_556  S
O175        H183   0.965       .  S
O178        H182   0.966       .  S
O179        H184   0.966       .  S
O197       Zr209   2.452       .  S
O197        C199   1.289       .  A
O198       Zr235   2.417       .  S
O198        C199   1.286       .  A
C199       C1104   1.494       .  S
O200       Zr212   2.453   1_545  S
O200        C202   1.290       .  A
O201       Zr236   2.403   1_554  S
O201        C202   1.281       .  A
C202        C583   1.487       .  S
O203       Zr212   2.434       .  S
O203        C205   1.288       .  A
O204       Zr235   2.425   1_554  S
O204        C205   1.285       .  A
C205       C1168   1.497       .  S
O206       Zr209   2.448   1_545  S
O206        C208   1.290       .  A
O207       Zr236   2.403       .  S
O207        C208   1.282       .  A
C208        C656   1.480       .  S
Zr209       O210   2.434       .  S
Zr209       O211   2.435       .  S
Zr209       O215   2.374       .  S
Zr209       O216   2.371   1_565  S
Zr209       O239   2.371   1_565  S
Zr209       O241   2.369       .  S
O210        H253   0.990       .  S
O211        H252   0.990       .  S
O211        H256   0.990       .  S
Zr212       O213   2.436       .  S
Zr212       O214   2.434       .  S
Zr212       O216   2.365   1_564  S
Zr212       O215   2.377   1_554  S
Zr212       O240   2.378       .  S
Zr212       O242   2.370   1_565  S
O213        H254   0.990   1_565  S
O213        H257   0.990       .  S
O214        H247   0.990       .  S
O215       Zr235   2.377       .  S
O216       Zr236   2.373       .  S
O216        H243   0.965       .  S
O217       Zr229   2.452   1_545  S
O217        C219   1.289       .  A
O218       Zr236   2.399       .  S
O218        C219   1.283       .  A
C219        C391   1.484       .  S
O220       Zr232   2.442       .  S
O220        C222   1.288       .  A
O221       Zr235   2.420   1_554  S
O221        C222   1.286       .  A
C222        C944   1.476       .  S
O223       Zr232   2.446   1_545  S
O223        C225   1.289       .  A
O224       Zr236   2.403   1_554  S
O224        C225   1.281       .  A
C225        C304   1.482       .  S
O226       Zr229   2.440       .  S
O226        C228   1.287       .  A
O227       Zr235   2.419       .  S
O227        C228   1.286       .  A
C228       C1040   1.478       .  S
Zr229       O230   2.435       .  S
Zr229       O231   2.434       .  S
Zr229       O237   2.370   1_565  S
Zr229       O238   2.375       .  S
Zr229       O241   2.372       .  S
Zr229       O239   2.369   1_565  S
O230        H250   0.990   1_565  S
O230        H255   0.990       .  S
O231        H251   0.990   1_565  S
Zr232       O233   2.434       .  S
Zr232       O234   2.434       .  S
Zr232       O238   2.373   1_554  S
Zr232       O237   2.371   1_564  S
Zr232       O242   2.374   1_565  S
Zr232       O240   2.374       .  S
O233        H249   0.990       .  S
O234        H248   0.990   1_565  S
O234        H258   0.990       .  S
Zr235       O238   2.380       .  S
Zr235       O240   2.382   1_556  S
Zr235       O241   2.381       .  S
Zr236       O237   2.376       .  S
Zr236       O239   2.371       .  S
Zr236       O242   2.371   1_556  S
O237        H245   0.966       .  S
O240        H244   0.967       .  S
O241        H246   0.966       .  S
C259        C260   1.401       .  A
C259        C264   1.403       .  A
C259        H269   1.085       .  S
C260        C265   1.476       .  S
C260        C261   1.410       .  A
C261        C262   1.399       .  A
C261        C266   1.507       .  S
C262        C263   1.401       .  A
C262        H267   1.085       .  S
C263        C264   1.415       .  A
C264        C268   1.508       .  S
C265        C270   1.408       .  A
C265        C274   1.399       .  A
C266        H282   1.110       .  S
C266        H283   1.110       .  S
C266        H284   1.111       .  S
C268        H279   1.110       .  S
C268        H280   1.111       .  S
C268        H281   1.107       .  S
C270        C271   1.402       .  A
C270        C275   1.506       .  S
C271        C272   1.406       .  A
C271        H276   1.084       .  S
C272        C273   1.418       .  A
C273        C274   1.401       .  A
C273        C277   1.509       .  S
C274        H278   1.085       .  S
C275        H285   1.111       .  S
C275        H286   1.110       .  S
C275        H287   1.110       .  S
C277        H288   1.110       .  S
C277        H289   1.105       .  S
C277        H290   1.111       .  S
C291        C292   1.400       .  A
C291        C296   1.403       .  A
C291        H301   1.084       .  S
C292        C297   1.476       .  S
C292        C293   1.408       .  A
C293        C294   1.398       .  A
C293        C298   1.508       .  S
C294        C295   1.407       .  A
C294        H299   1.082       .  S
C295        C296   1.420       .  A
C296        C300   1.508       .  S
C297        C302   1.409       .  A
C297        C306   1.398       .  A
C298        H314   1.109       .  S
C298        H315   1.110       .  S
C298        H316   1.111       .  S
C300        H311   1.111       .  S
C300        H312   1.109       .  S
C300        H313   1.111       .  S
C302        C303   1.402       .  A
C302        C307   1.507       .  S
C303        C304   1.407       .  A
C303        H308   1.084       .  S
C304        C305   1.421       .  A
C305        C306   1.400       .  A
C305        C309   1.510       .  S
C306        H310   1.084       .  S
C307        H317   1.111       .  S
C307        H318   1.109       .  S
C307        H319   1.110       .  S
C309        H320   1.109       .  S
C309        H321   1.110       .  S
C309        H322   1.111       .  S
C323        C324   1.400       .  A
C323        C328   1.402       .  A
C323        H333   1.085       .  S
C324        C329   1.476       .  S
C324        C325   1.409       .  A
C325        C326   1.399       .  A
C325        C330   1.507       .  S
C326        C327   1.405       .  A
C326        H331   1.084       .  S
C327        C328   1.418       .  A
C328        C332   1.506       .  S
C329        C334   1.408       .  A
C329        C338   1.398       .  A
C330        H346   1.110       .  S
C330        H347   1.110       .  S
C330        H348   1.111       .  S
C332        H343   1.110       .  S
C332        H344   1.111       .  S
C332        H345   1.103       .  S
C334        C335   1.401       .  A
C334        C339   1.506       .  S
C335        C336   1.407       .  A
C335        H340   1.084       .  S
C336        C337   1.421       .  A
C337        C338   1.402       .  A
C337        C341   1.507       .  S
C338        H342   1.084       .  S
C339        H349   1.111       .  S
C339        H350   1.110       .  S
C339        H351   1.110       .  S
C341        H352   1.111       .  S
C341        H353   1.110       .  S
C341        H354   1.108       .  S
C355        C356   1.399       .  A
C355        C360   1.405       .  A
C355        H365   1.084       .  S
C356        C361   1.476       .  S
C356        C357   1.406       .  A
C357        C358   1.399       .  A
C357        C362   1.508       .  S
C358        C359   1.410       .  A
C358        H363   1.084       .  S
C359        C360   1.421       .  A
C360        C364   1.507       .  S
C361        C366   1.409       .  A
C361        C370   1.400       .  A
C362        H378   1.110       .  S
C362        H379   1.110       .  S
C362        H380   1.111       .  S
C364        H375   1.110       .  S
C364        H376   1.111       .  S
C364        H377   1.110       .  S
C366        C367   1.402       .  A
C366        C371   1.506       .  S
C367        C368   1.404       .  A
C367        H372   1.084       .  S
C368        C369   1.415       .  A
C369        C370   1.401       .  A
C369        C373   1.506       .  S
C370        H374   1.085       .  S
C371        H381   1.111       .  S
C371        H382   1.110       .  S
C371        H383   1.110       .  S
C373        H384   1.110       .  S
C373        H385   1.106       .  S
C373        H386   1.111       .  S
C387        C388   1.400       .  A
C387        C392   1.404       .  A
C387        H397   1.084       .  S
C388        C393   1.476       .  S
C388        C389   1.407       .  A
C389        C390   1.399       .  A
C389        C394   1.507       .  S
C390        C391   1.408       .  A
C390        H395   1.084       .  S
C391        C392   1.418       .  A
C392        C396   1.507       .  S
C393        C398   1.410       .  A
C393        C402   1.399       .  A
C394        H410   1.110       .  S
C394        H411   1.111       .  S
C394        H412   1.111       .  S
C396        H407   1.111       .  S
C396        H408   1.109       .  S
C396        H409   1.110       .  S
C398        C399   1.402       .  A
C398        C403   1.507       .  S
C399        C400   1.404       .  A
C399        H404   1.084       .  S
C400        C401   1.417       .  A
C401        C402   1.401       .  A
C401        C405   1.508       .  S
C402        H406   1.085       .  S
C403        H413   1.111       .  S
C403        H414   1.110       .  S
C403        H415   1.111       .  S
C405        H416   1.111       .  S
C405        H417   1.106       .  S
C405        H418   1.110       .  S
C419        C420   1.398       .  A
C419        C424   1.402       .  A
C419        H429   1.084       .  S
C420        C425   1.474       .  S
C420        C421   1.408       .  A
C421        C422   1.401       .  A
C421        C426   1.507       .  S
C422        C423   1.405       .  A
C422        H427   1.084       .  S
C423        C424   1.419       .  A
C424        C428   1.509       .  S
C425        C430   1.410       .  A
C425        C434   1.401       .  A
C426        H442   1.110       .  S
C426        H443   1.110       .  S
C426        H444   1.111       .  S
C428        H439   1.111       .  S
C428        H440   1.109       .  S
C428        H441   1.110       .  S
C430        C431   1.401       .  A
C430        C435   1.506       .  S
C431        C432   1.401       .  A
C431        H436   1.085       .  S
C432        C433   1.414       .  A
C433        C434   1.400       .  A
C433        C437   1.509       .  S
C434        H438   1.085       .  S
C435        H445   1.111       .  S
C435        H446   1.110       .  S
C435        H447   1.110       .  S
C437        H448   1.110       .  S
C437        H449   1.108       .  S
C437        H450   1.111       .  S
C451        C452   1.397       .  A
C451        C456   1.404       .  A
C451        H461   1.084       .  S
C452        C457   1.473       .  S
C452        C453   1.405       .  A
C453        C454   1.399       .  A
C453        C458   1.508       .  S
C454        C455   1.412       .  A
C454        H459   1.083       .  S
C455        C456   1.425       .  A
C456        C460   1.508       .  S
C457        C462   1.409       .  A
C457        C466   1.400       .  A
C458        H474   1.110       .  S
C458        H475   1.110       .  S
C458        H476   1.111       .  S
C460        H471   1.110       .  S
C460        H472   1.111       .  S
C460        H473   1.110       .  S
C462        C463   1.399       .  A
C462        C467   1.507       .  S
C463        C464   1.404       .  A
C463        H468   1.084       .  S
C464        C465   1.415       .  A
C465        C466   1.402       .  A
C465        C469   1.509       .  S
C466        H470   1.084       .  S
C467        H477   1.111       .  S
C467        H478   1.110       .  S
C467        H479   1.109       .  S
C469        H480   1.109       .  S
C469        H481   1.111       .  S
C469        H482   1.111       .  S
C483        C484   1.398       .  A
C483        C488   1.399       .  A
C483        H493   1.085       .  S
C484        C489   1.468       .  S
C484        C485   1.408       .  A
C485        C486   1.399       .  A
C485        C490   1.508       .  S
C486        C487   1.404       .  A
C486        H491   1.084       .  S
C487        C488   1.416       .  A
C488        C492   1.508       .  S
C489        C494   1.409       .  A
C489        C498   1.400       .  A
C490        H506   1.110       .  S
C490        H507   1.110       .  S
C490        H508   1.111       .  S
C492        H503   1.110       .  S
C492        H504   1.111       .  S
C492        H505   1.107       .  S
C494        C495   1.398       .  A
C494        C499   1.507       .  S
C495        C496   1.400       .  A
C495        H500   1.085       .  S
C496        C497   1.412       .  A
C497        C498   1.398       .  A
C497        C501   1.508       .  S
C498        H502   1.085       .  S
C499        H509   1.111       .  S
C499        H510   1.110       .  S
C499        H511   1.109       .  S
C501        H512   1.110       .  S
C501        H513   1.108       .  S
C501        H514   1.111   1_554  S
C515        C516   1.398       .  A
C515        C520   1.401       .  A
C515        H525   1.085       .  S
C516        C521   1.474       .  S
C516        C517   1.407       .  A
C517        C518   1.401       .  A
C517        C522   1.506       .  S
C518        C519   1.406       .  A
C518        H523   1.084       .  S
C519        C520   1.421       .  A
C520        C524   1.509       .  S
C521        C526   1.409       .  A
C521        C530   1.399       .  A
C522        H538   1.110       .  S
C522        H539   1.110       .  S
C522        H540   1.111       .  S
C524        H535   1.111       .  S
C524        H536   1.111       .  S
C524        H537   1.105       .  S
C526        C527   1.402       .  A
C526        C531   1.506       .  S
C527        C528   1.404       .  A
C527        H532   1.084       .  S
C528        C529   1.415       .  A
C529        C530   1.400       .  A
C529        C533   1.509       .  S
C530        H534   1.085       .  S
C531        H541   1.111       .  S
C531        H542   1.110       .  S
C531        H543   1.110       .  S
C533        H544   1.111       .  S
C533        H545   1.106       .  S
C533        H546   1.110       .  S
C547        C548   1.400       .  A
C547        C552   1.403       .  A
C547        H557   1.084       .  S
C548        C553   1.479       .  S
C548        C549   1.409       .  A
C549        C550   1.402       .  A
C549        C554   1.507       .  S
C550        C551   1.407       .  A
C550        H555   1.084       .  S
C551        C552   1.418       .  A
C552        C556   1.507       .  S
C553        C558   1.408       .  A
C553        C562   1.399       .  A
C554        H570   1.110       .  S
C554        H571   1.110       .  S
C554        H572   1.110       .  S
C556        H567   1.109       .  S
C556        H568   1.110       .  S
C556        H569   1.111       .  S
C558        C559   1.401       .  A
C558        C563   1.507       .  S
C559        C560   1.408       .  A
C559        H564   1.084       .  S
C560        C561   1.424       .  A
C561        C562   1.404       .  A
C561        C565   1.509       .  S
C562        H566   1.084       .  S
C563        H573   1.111       .  S
C563        H574   1.110       .  S
C563        H575   1.110       .  S
C565        H576   1.111       .  S
C565        H577   1.109       .  S
C565        H578   1.110       .  S
C579        C580   1.399       .  A
C579        C584   1.403       .  A
C579        H589   1.084       .  S
C580        C585   1.481       .  S
C580        C581   1.410       .  A
C581        C582   1.403       .  A
C581        C586   1.507       .  S
C582        C583   1.407       .  A
C582        H587   1.084       .  S
C583        C584   1.423       .  A
C584        C588   1.510   1_554  S
C585        C590   1.411       .  A
C585        C594   1.400       .  A
C586        H602   1.109       .  S
C586        H603   1.110       .  S
C586        H604   1.111       .  S
C588        H599   1.111       .  S
C588        H600   1.109       .  S
C588        H601   1.111       .  S
C590        C591   1.404       .  A
C590        C595   1.506       .  S
C591        C592   1.405       .  A
C591        H596   1.084       .  S
C592        C593   1.417       .  A
C593        C594   1.401       .  A
C593        C597   1.505       .  S
C594        H598   1.085       .  S
C595        H605   1.111       .  S
C595        H606   1.110       .  S
C595        H607   1.110       .  S
C597        H608   1.111       .  S
C597        H609   1.104       .  S
C597        H610   1.110       .  S
C611        C612   1.397       .  A
C611        C616   1.404       .  A
C611        H621   1.084       .  S
C612        C617   1.477       .  S
C612        C613   1.407       .  A
C613        C614   1.401       .  A
C613        C618   1.507       .  S
C614        C615   1.409       .  A
C614        H619   1.083       .  S
C615        C616   1.427       .  A
C616        C620   1.510       .  S
C617        C622   1.410       .  A
C617        C626   1.401       .  A
C618        H634   1.110       .  S
C618        H635   1.111       .  S
C618        H636   1.111       .  S
C620        H631   1.110       .  S
C620        H632   1.111       .  S
C620        H633   1.110       .  S
C622        C623   1.400       .  A
C622        C627   1.507       .  S
C623        C624   1.401       .  A
C623        H628   1.084       .  S
C624        C625   1.415       .  A
C625        C626   1.403       .  A
C625        C629   1.508       .  S
C626        H630   1.085       .  S
C627        H637   1.110       .  S
C627        H638   1.110       .  S
C627        H639   1.110       .  S
C629        H640   1.110       .  S
C629        H641   1.108       .  S
C629        H642   1.111       .  S
C643        C644   1.399       .  A
C643        C648   1.403       .  A
C643        H653   1.084       .  S
C644        C649   1.476       .  S
C644        C645   1.407       .  A
C645        C646   1.399       .  A
C645        C650   1.508       .  S
C646        C647   1.409       .  A
C646        H651   1.084       .  S
C647        C648   1.420       .  A
C648        C652   1.508       .  S
C649        C654   1.409       .  A
C649        C658   1.399       .  A
C650        H666   1.110       .  S
C650        H667   1.110       .  S
C650        H668   1.111       .  S
C652        H663   1.111       .  S
C652        H664   1.110       .  S
C652        H665   1.110       .  S
C654        C655   1.401       .  A
C654        C659   1.507       .  S
C655        C656   1.406       .  A
C655        H660   1.084       .  S
C656        C657   1.421       .  A
C657        C658   1.402       .  A
C657        C661   1.510       .  S
C658        H662   1.084       .  S
C659        H669   1.111       .  S
C659        H670   1.110       .  S
C659        H671   1.110       .  S
C661        H672   1.111       .  S
C661        H673   1.109       .  S
C661        H674   1.110       .  S
C675        C676   1.398       .  A
C675        C680   1.400       .  A
C675        H685   1.085       .  S
C676        C681   1.471       .  S
C676        C677   1.407       .  A
C677        C678   1.399       .  A
C677        C682   1.507       .  S
C678        C679   1.406       .  A
C678        H683   1.084       .  S
C679        C680   1.417       .  A
C680        C684   1.504       .  S
C681        C686   1.408       .  A
C681        C690   1.399       .  A
C682        H698   1.110       .  S
C682        H699   1.110       .  S
C682        H700   1.111       .  S
C684        H695   1.111       .  S
C684        H696   1.110       .  S
C684        H697   1.102       .  S
C686        C687   1.399       .  A
C686        C691   1.507       .  S
C687        C688   1.404       .  A
C687        H692   1.084       .  S
C688        C689   1.417       .  A
C689        C690   1.400       .  A
C689        C693   1.508       .  S
C690        H694   1.085       .  S
C691        H701   1.111       .  S
C691        H702   1.110       .  S
C691        H703   1.110       .  S
C693        H704   1.110       .  S
C693        H705   1.106       .  S
C693        H706   1.111       .  S
C707        C708   1.404       .  A
C707        C712   1.403       .  A
C707        H717   1.084       .  S
C708        C713   1.483       .  S
C708        C709   1.413       .  A
C709        C710   1.402       .  A
C709        C714   1.507       .  S
C710        C711   1.401       .  A
C710        H715   1.085       .  S
C711        C712   1.413       .  A
C712        C716   1.508       .  S
C713        C718   1.411       .  A
C713        C722   1.402       .  A
C714        H730   1.109       .  S
C714        H731   1.110       .  S
C714        H732   1.111       .  S
C716        H727   1.110       .  S
C716        H728   1.110       .  S
C716        H729   1.108       .  S
C718        C719   1.404       .  A
C718        C723   1.507       .  S
C719        C720   1.405       .  A
C719        H724   1.084       .  S
C720        C721   1.417       .  A
C721        C722   1.403       .  A
C721        C725   1.508       .  S
C722        H726   1.085       .  S
C723        H733   1.111       .  S
C723        H734   1.109       .  S
C723        H735   1.110       .  S
C725        H736   1.110       .  S
C725        H737   1.107       .  S
C725        H738   1.111       .  S
C739        C740   1.402       .  A
C739        C744   1.405       .  A
C739        H749   1.084       .  S
C740        C745   1.480       .  S
C740        C741   1.410       .  A
C741        C742   1.400       .  A
C741        C746   1.507       .  S
C742        C743   1.403       .  A
C742        H747   1.084       .  S
C743        C744   1.414       .  A
C744        C748   1.507       .  S
C745        C750   1.408       .  A
C745        C754   1.400       .  A
C746        H762   1.110       .  S
C746        H763   1.110       .  S
C746        H764   1.111       .  S
C748        H759   1.111       .  S
C748        H760   1.111       .  S
C748        H761   1.109       .  S
C750        C751   1.402       .  A
C750        C755   1.507       .  S
C751        C752   1.408       .  A
C751        H756   1.084       .  S
C752        C753   1.421       .  A
C753        C754   1.405       .  A
C753        C757   1.508       .  S
C754        H758   1.084       .  S
C755        H765   1.111       .  S
C755        H766   1.110       .  S
C755        H767   1.110       .  S
C757        H768   1.111       .  S
C757        H769   1.109       .  S
C757        H770   1.110       .  S
C771        C772   1.398       .  A
C771        C776   1.403       .  A
C771        H781   1.084       .  S
C772        C777   1.480       .  S
C772        C773   1.409       .  A
C773        C774   1.403       .  A
C773        C778   1.507       .  S
C774        C775   1.410       .  A
C774        H779   1.084       .  S
C775        C776   1.422       .  A
C776        C780   1.507       .  S
C777        C782   1.409       .  A
C777        C786   1.400       .  A
C778        H794   1.110       .  S
C778        H795   1.110       .  S
C778        H796   1.111       .  S
C780        H791   1.111       .  S
C780        H792   1.109       .  S
C780        H793   1.109       .  S
C782        C783   1.400       .  A
C782        C787   1.508       .  S
C783        C784   1.408       .  A
C783        H788   1.082       .  S
C784        C785   1.422       .  A
C785        C786   1.405       .  A
C785        C789   1.508       .  S
C786        H790   1.084       .  S
C787        H797   1.111       .  S
C787        H798   1.109       .  S
C787        H799   1.110       .  S
C789        H800   1.109       .  S
C789        H801   1.110       .  S
C789        H802   1.111       .  S
C803        C804   1.400       .  A
C803        C808   1.403       .  A
C803        H813   1.085       .  S
C804        C809   1.481       .  S
C804        C805   1.410       .  A
C805        C806   1.404       .  A
C805        C810   1.506       .  S
C806        C807   1.405       .  A
C806        H811   1.084       .  S
C807        C808   1.417       .  A
C808        C812   1.506       .  S
C809        C814   1.409       .  A
C809        C818   1.401       .  A
C810        H826   1.110       .  S
C810        H827   1.110       .  S
C810        H828   1.111       .  S
C812        H823   1.110       .  S
C812        H824   1.111       .  S
C812        H825   1.106       .  S
C814        C815   1.403       .  A
C814        C819   1.507       .  S
C815        C816   1.405       .  A
C815        H820   1.084       .  S
C816        C817   1.418       .  A
C817        C818   1.406       .  A
C817        C821   1.508       .  S
C818        H822   1.084       .  S
C819        H829   1.111       .  S
C819        H830   1.110       .  S
C819        H831   1.110       .  S
C821        H832   1.110       .  S
C821        H833   1.109       .  S
C821        H834   1.111       .  S
C835        C836   1.399       .  A
C835        C840   1.401       .  A
C835        H845   1.085       .  S
C836        C841   1.477       .  S
C836        C837   1.410       .  A
C837        C838   1.403       .  A
C837        C842   1.507       .  S
C838        C839   1.405       .  A
C838        H843   1.084       .  S
C839        C840   1.419       .  A
C840        C844   1.508   1_554  S
C841        C846   1.410       .  A
C841        C850   1.400       .  A
C842        H858   1.110       .  S
C842        H859   1.109       .  S
C842        H860   1.111       .  S
C844        H855   1.110       .  S
C844        H856   1.111       .  S
C844        H857   1.105       .  S
C846        C847   1.402       .  A
C846        C851   1.507       .  S
C847        C848   1.402       .  A
C847        H852   1.084       .  S
C848        C849   1.415       .  A
C849        C850   1.403       .  A
C849        C853   1.506       .  S
C850        H854   1.085       .  S
C851        H861   1.111       .  S
C851        H862   1.110       .  S
C851        H863   1.109       .  S
C853        H864   1.110       .  S
C853        H865   1.106       .  S
C853        H866   1.110       .  S
C867        C868   1.401       .  A
C867        C872   1.403       .  A
C867        H877   1.085       .  S
C868        C873   1.482       .  S
C868        C869   1.411       .  A
C869        C870   1.403       .  A
C869        C874   1.506       .  S
C870        C871   1.405       .  A
C870        H875   1.084       .  S
C871        C872   1.418       .  A
C872        C876   1.509       .  S
C873        C878   1.412       .  A
C873        C882   1.400       .  A
C874        H890   1.110       .  S
C874        H891   1.110       .  S
C874        H892   1.111       .  S
C876        H887   1.111       .  S
C876        H888   1.110       .  S
C876        H889   1.106       .  S
C878        C879   1.405       .  A
C878        C883   1.507       .  S
C879        C880   1.404       .  A
C879        H884   1.084       .  S
C880        C881   1.416       .  A
C881        C882   1.402       .  A
C881        C885   1.507       .  S
C882        H886   1.085       .  S
C883        H893   1.111       .  S
C883        H894   1.110       .  S
C883        H895   1.111       .  S
C885        H896   1.111       .  S
C885        H897   1.105       .  S
C885        H898   1.110       .  S
C899        C900   1.403       .  A
C899        C904   1.403       .  A
C899        H909   1.084       .  S
C900        C905   1.483       .  S
C900        C901   1.412       .  A
C901        C902   1.403       .  A
C901        C906   1.507       .  S
C902        C903   1.402       .  A
C902        H907   1.084       .  S
C903        C904   1.416       .  A
C904        C908   1.508   1_554  S
C905        C910   1.412       .  A
C905        C914   1.403       .  A
C906        H922   1.109       .  S
C906        H923   1.110       .  S
C906        H924   1.111       .  S
C908        H919   1.111       .  S
C908        H920   1.111       .  S
C908        H921   1.107       .  S
C910        C911   1.402       .  A
C910        C915   1.507       .  S
C911        C912   1.402       .  A
C911        H916   1.084       .  S
C912        C913   1.414       .  A
C913        C914   1.402       .  A
C913        C917   1.508       .  S
C914        H918   1.084       .  S
C915        H925   1.111       .  S
C915        H926   1.109       .  S
C915        H927   1.110       .  S
C917        H928   1.111       .  S
C917        H929   1.107       .  S
C917        H930   1.110       .  S
C931        C932   1.398       .  A
C931        C936   1.403       .  A
C931        H941   1.084       .  S
C932        C937   1.479       .  S
C932        C933   1.407       .  A
C933        C934   1.403       .  A
C933        C938   1.506       .  S
C934        C935   1.409       .  A
C934        H939   1.084       .  S
C935        C936   1.423       .  A
C936        C940   1.509       .  S
C937        C942   1.409       .  A
C937        C946   1.401       .  A
C938        H954   1.110       .  S
C938        H955   1.110       .  S
C938        H956   1.111       .  S
C940        H951   1.111       .  S
C940        H952   1.109       .  S
C940        H953   1.111       .  S
C942        C943   1.401       .  A
C942        C947   1.506       .  S
C943        C944   1.404       .  A
C943        H948   1.083       .  S
C944        C945   1.418       .  A
C945        C946   1.404       .  A
C945        C949   1.508       .  S
C946        H950   1.085       .  S
C947        H957   1.111       .  S
C947        H958   1.110       .  S
C947        H959   1.110       .  S
C949        H960   1.111       .  S
C949        H961   1.106       .  S
C949        H962   1.110       .  S
C963        C964   1.400       .  A
C963        C968   1.400       .  A
C963        H973   1.085       .  S
C964        C969   1.477       .  S
C964        C965   1.410       .  A
C965        C966   1.403       .  A
C965        C970   1.506       .  S
C966        C967   1.405       .  A
C966        H971   1.084       .  S
C967        C968   1.417       .  A
C968        C972   1.509       .  S
C969        C974   1.410       .  A
C969        C978   1.400       .  A
C970        H986   1.110       .  S
C970        H987   1.110       .  S
C970        H988   1.111       .  S
C972        H983   1.111       .  S
C972        H984   1.110       .  S
C972        H985   1.106       .  S
C974        C975   1.402       .  A
C974        C979   1.506       .  S
C975        C976   1.402       .  A
C975        H980   1.084       .  S
C976        C977   1.416       .  A
C977        C978   1.401       .  A
C977        C981   1.507       .  S
C978        H982   1.085       .  S
C979        H989   1.111       .  S
C979        H990   1.109       .  S
C979        H991   1.111       .  S
C981        H992   1.110       .  S
C981        H993   1.108       .  S
C981        H994   1.109       .  S
C995        C996   1.400       .  A
C995       C1000   1.401       .  A
C995       H1005   1.085       .  S
C996       C1001   1.476       .  S
C996        C997   1.409       .  A
C997        C998   1.402       .  A
C997       C1002   1.506       .  S
C998        C999   1.404       .  A
C998       H1003   1.084       .  S
C999       C1000   1.416       .  A
C1000      C1004   1.508       .  S
C1001      C1006   1.408       .  A
C1001      C1010   1.398       .  A
C1002      H1018   1.110       .  S
C1002      H1019   1.110       .  S
C1002      H1020   1.111       .  S
C1004      H1015   1.110       .  S
C1004      H1016   1.111       .  S
C1004      H1017   1.107       .  S
C1006      C1007   1.402       .  A
C1006      C1011   1.506       .  S
C1007      C1008   1.406       .  A
C1007      H1012   1.084       .  S
C1008      C1009   1.421       .  A
C1009      C1010   1.403       .  A
C1009      C1013   1.509       .  S
C1010      H1014   1.084       .  S
C1011      H1021   1.111       .  S
C1011      H1022   1.110       .  S
C1011      H1023   1.110       .  S
C1013      H1024   1.111       .  S
C1013      H1025   1.110       .  S
C1013      H1026   1.109       .  S
C1027      C1028   1.396       .  A
C1027      C1032   1.403       .  A
C1027      H1037   1.084       .  S
C1028      C1033   1.475       .  S
C1028      C1029   1.405       .  A
C1029      C1030   1.401       .  A
C1029      C1034   1.507       .  S
C1030      C1031   1.412       .  A
C1030      H1035   1.083       .  S
C1031      C1032   1.426       .  A
C1032      C1036   1.508       .  S
C1033      C1038   1.409       .  A
C1033      C1042   1.399       .  A
C1034      H1050   1.110       .  S
C1034      H1051   1.110       .  S
C1034      H1052   1.111       .  S
C1036      H1047   1.111       .  S
C1036      H1048   1.110       .  S
C1036      H1049   1.109       .  S
C1038      C1039   1.401       .  A
C1038      C1043   1.507       .  S
C1039      C1040   1.405       .  A
C1039      H1044   1.084       .  S
C1040      C1041   1.417       .  A
C1041      C1042   1.403       .  A
C1041      C1045   1.508       .  S
C1042      H1046   1.084       .  S
C1043      H1053   1.109       .  S
C1043      H1054   1.110       .  S
C1043      H1055   1.110       .  S
C1045      H1056   1.111       .  S
C1045      H1057   1.109       .  S
C1045      H1058   1.111       .  S
C1059      C1060   1.400       .  A
C1059      C1064   1.403       .  A
C1059      H1069   1.084       .  S
C1060      C1065   1.473       .  S
C1060      C1061   1.405       .  A
C1061      C1062   1.397       .  A
C1061      C1066   1.507       .  S
C1062      C1063   1.410       .  A
C1062      H1067   1.084       .  S
C1063      C1064   1.420       .  A
C1064      C1068   1.508       .  S
C1065      C1070   1.407       .  A
C1065      C1074   1.398       .  A
C1066      H1082   1.110       .  S
C1066      H1083   1.110       .  S
C1066      H1084   1.111       .  S
C1068      H1079   1.110       .  S
C1068      H1080   1.111       .  S
C1068      H1081   1.110       .  S
C1070      C1071   1.401       .  A
C1070      C1075   1.507       .  S
C1071      C1072   1.407       .  A
C1071      H1076   1.083       .  S
C1072      C1073   1.419       .  A
C1073      C1074   1.402       .  A
C1073      C1077   1.508       .  S
C1074      H1078   1.084       .  S
C1075      H1085   1.111       .  S
C1075      H1086   1.110       .  S
C1075      H1087   1.111       .  S
C1077      H1088   1.109       .  S
C1077      H1089   1.111       .  S
C1077      H1090   1.111       .  S
C1091      C1092   1.397       .  A
C1091      C1096   1.404       .  A
C1091      H1101   1.084       .  S
C1092      C1097   1.480       .  S
C1092      C1093   1.407       .  A
C1093      C1094   1.403       .  A
C1093      C1098   1.506       .  S
C1094      C1095   1.411       .  A
C1094      H1099   1.083       .  S
C1095      C1096   1.425       .  A
C1096      C1100   1.508       .  S
C1097      C1102   1.407       .  A
C1097      C1106   1.399       .  A
C1098      H1114   1.110       .  S
C1098      H1115   1.110       .  S
C1098      H1116   1.111       .  S
C1100      H1111   1.110       .  S
C1100      H1112   1.111       .  S
C1100      H1113   1.110       .  S
C1102      C1103   1.403       .  A
C1102      C1107   1.507       .  S
C1103      C1104   1.411       .  A
C1103      H1108   1.083       .  S
C1104      C1105   1.422       .  A
C1105      C1106   1.405       .  A
C1105      C1109   1.508       .  S
C1106      H1110   1.084       .  S
C1107      H1117   1.110       .  S
C1107      H1118   1.110       .  S
C1107      H1119   1.110       .  S
C1109      H1120   1.111       .  S
C1109      H1121   1.110       .  S
C1109      H1122   1.110       .  S
C1123      C1124   1.401       .  A
C1123      C1128   1.401       .  A
C1123      H1133   1.085       .  S
C1124      C1129   1.477       .  S
C1124      C1125   1.410       .  A
C1125      C1126   1.401       .  A
C1125      C1130   1.506       .  S
C1126      C1127   1.403       .  A
C1126      H1131   1.084       .  S
C1127      C1128   1.416       .  A
C1128      C1132   1.509       .  S
C1129      C1134   1.408       .  A
C1129      C1138   1.400       .  A
C1130      H1146   1.110       .  S
C1130      H1147   1.110       .  S
C1130      H1148   1.111       .  S
C1132      H1143   1.110       .  S
C1132      H1144   1.111       .  S
C1132      H1145   1.106       .  S
C1134      C1135   1.400       .  A
C1134      C1139   1.507       .  S
C1135      C1136   1.406       .  A
C1135      H1140   1.084       .  S
C1136      C1137   1.421       .  A
C1137      C1138   1.404       .  A
C1137      C1141   1.509   1_554  S
C1138      H1142   1.084       .  S
C1139      H1149   1.111       .  S
C1139      H1150   1.110       .  S
C1139      H1151   1.110       .  S
C1141      H1152   1.109       .  S
C1141      H1153   1.110       .  S
C1141      H1154   1.111       .  S
C1155      C1156   1.399       .  A
C1155      C1160   1.404       .  A
C1155      H1165   1.084       .  S
C1156      C1161   1.476       .  S
C1156      C1157   1.407       .  A
C1157      C1158   1.399       .  A
C1157      C1162   1.507       .  S
C1158      C1159   1.407       .  A
C1158      H1163   1.084       .  S
C1159      C1160   1.421       .  A
C1160      C1164   1.508       .  S
C1161      C1166   1.405       .  A
C1161      C1170   1.397       .  A
C1162      H1178   1.110       .  S
C1162      H1179   1.110       .  S
C1162      H1180   1.111       .  S
C1164      H1175   1.110       .  S
C1164      H1176   1.111       .  S
C1164      H1177   1.109       .  S
C1166      C1167   1.402       .  A
C1166      C1171   1.507       .  S
C1167      C1168   1.413       .  A
C1167      H1172   1.083       .  S
C1168      C1169   1.426       .  A
C1169      C1170   1.404       .  A
C1169      C1173   1.509       .  S
C1170      H1174   1.084       .  S
C1171      H1181   1.111       .  S
C1171      H1182   1.110       .  S
C1171      H1183   1.110       .  S
C1173      H1184   1.110       .  S
C1173      H1185   1.109       .  S
C1173      H1186   1.111       .  S
C1187      C1188   1.399       .  A
C1187      C1192   1.401       .  A
C1187      H1197   1.085       .  S
C1188      C1193   1.474       .  S
C1188      C1189   1.408       .  A
C1189      C1190   1.402       .  A
C1189      C1194   1.507       .  S
C1190      C1191   1.405       .  A
C1190      H1195   1.084       .  S
C1191      C1192   1.416       .  A
C1192      C1196   1.508       .  S
C1193      C1198   1.408       .  A
C1193      C1202   1.398       .  A
C1194      H1210   1.110       .  S
C1194      H1211   1.109       .  S
C1194      H1212   1.111       .  S
C1196      H1207   1.111       .  S
C1196      H1208   1.110       .  S
C1196      H1209   1.106       .  S
C1198      C1199   1.400       .  A
C1198      C1203   1.507       .  S
C1199      C1200   1.407       .  A
C1199      H1204   1.084       .  S
C1200      C1201   1.420       .  A
C1201      C1202   1.403       .  A
C1201      C1205   1.508       .  S
C1202      H1206   1.084       .  S
C1203      H1213   1.111       .  S
C1203      H1214   1.110       .  S
C1203      H1215   1.109       .  S
C1205      H1216   1.109       .  S
C1205      H1217   1.110       .  S
C1205      H1218   1.111       .  S
