geometry optimzed in LAMMPS
_audit_creation_date              2020-12-01 
_audit_creation_method            'lammps2cif' 
_symmetry_space_group_name_H-M    'P1' 
_symmetry_Int_Tables_number       1 
_symmetry_cell_setting            triclinic 
loop_ 
_symmetry_equiv_pos_as_xyz 
  x,y,z 
_cell_length_a                    32.43153677 
_cell_length_b                    28.020143957463805 
_cell_length_c                    26.53655277630894 
_cell_angle_alpha                 90.2151394063531 
_cell_angle_beta                  89.33670383836926 
_cell_angle_gamma                 125.06178351791105 
loop_ 
_atom_site_label 
_atom_site_type_symbol 
_atom_site_fract_x 
_atom_site_fract_y 
_atom_site_fract_z 
_atom_site_charge 
N1          N  0.51426668  0.86038410  0.50048057    -0.01600
C2          C  0.52805259  0.82410306  0.49024662     0.01000
C3          C  0.50692766  0.76832684  0.99833913    -0.21900
C4          C  0.47609909  0.77139756  0.03276922    -0.22100
C5          C  0.48011598  0.82228099  0.02271135     0.00900
H6          H  0.51876597  0.73935034  0.00109486     0.14700
H7          H  0.45913643  0.74453943  0.06603089     0.14700
N8          N  0.24039389  0.83073764  0.52035953    -0.01600
C9          C  0.23709293  0.85264015  0.47611427     0.01000
C10         C  0.21573739  0.88278276  0.48591516    -0.21900
C11         C  0.21740211  0.94053739  0.04321638    -0.22100
C12         C  0.23201510  0.90750938  0.06386239     0.00900
H13         H  0.20903757  0.90669527  0.45932411     0.14700
H14         H  0.21563070  0.97350346  0.06242101     0.14700
N15         N  0.61108388  0.14282394  0.33377494    -0.04200
N16         N  0.64271558  0.17482714  0.37038544    -0.56400
N17         N  0.61542234  0.11302234  0.21111305    -0.03900
N18         N  0.64531851  0.12317693  0.17199279    -0.58500
N19         N  0.61664038  0.15981575  0.22092799    -0.03500
N20         N  0.64721257  0.20250085  0.19009774    -0.56300
N21         N  0.61025089  0.09587673  0.32625248    -0.03200
N22         N  0.64083018  0.09467191  0.35772161    -0.58800
C23         C  0.66058221  0.14373233  0.38531702     0.97900
C24         C  0.66513906  0.17968229  0.15992997     0.97700
N25         N  0.47875276  0.94489281  0.19635336    -0.04400
N26         N  0.46299403  0.91302691  0.15472258    -0.56900
N27         N  0.52158875  0.96463644  0.31655657    -0.02500
N28         N  0.53504456  0.95432332  0.35989408    -0.58200
N29         N  0.47210470  0.93360352  0.31385500    -0.04500
N30         N  0.45110689  0.90145966  0.35473404    -0.57200
N31         N  0.52829314  0.97730645  0.19803570    -0.02200
N32         N  0.54711447  0.96837181  0.15752202    -0.58300
Mn33       Mn  0.56980000  0.03646444  0.26228944     1.18400
C34         C  0.50612684  0.92826429  0.13074350     1.00000
C35         C  0.49055899  0.91471052  0.38308833     1.00700
N36         N  0.53644157  0.18561904  0.22287925    -0.04500
N37         N  0.55923858  0.22576035  0.18723341    -0.60800
N38         N  0.47852304  0.13854743  0.33547508    -0.03300
N39         N  0.46091536  0.14747657  0.37719072    -0.61500
N40         N  0.52765266  0.16636242  0.33851331    -0.04000
N41         N  0.54435530  0.19361512  0.38175228    -0.61100
N42         N  0.48727390  0.15407712  0.21710477    -0.02900
N43         N  0.47580498  0.17202979  0.17687263    -0.61700
Mn44       Mn  0.57324860  0.16494893  0.27966901     1.10700
C45         C  0.52127355  0.21662172  0.15849903     1.01200
C46         C  0.50269472  0.18155735  0.40577198     1.01300
N47         N  0.38850905  0.95763764  0.31627279    -0.04000
N48         N  0.35383044  0.91741411  0.34773678    -0.59400
N49         N  0.39654094  0.01834537  0.20611514    -0.03300
N50         N  0.36456571  0.01578085  0.17364733    -0.56100
N51         N  0.39672822  0.97158450  0.20172327    -0.04600
N52         N  0.36601978  0.93714391  0.16595809    -0.58900
N53         N  0.39058914  0.00585129  0.32006131    -0.03600
N54         N  0.35767821  0.99957691  0.35372749    -0.56100
Mn55       Mn  0.43337207  0.94997845  0.25677207     1.20200
Mn56       Mn  0.43734491  0.08046292  0.26944965     1.10100
Cl57       Cl  0.50334309  0.05786438  0.26680935    -0.84100
C58         C  0.33525978  0.94465957  0.37099560     0.98200
C59         C  0.34598680  0.96480948  0.14905413     0.98000
N60         N  0.49382801  0.28505672  0.48386753    -0.01600
C61         C  0.50285866  0.28290514  0.04076431     0.01000
C62         C  0.52294600  0.34064007  0.05201438    -0.21900
C63         C  0.50287705  0.35908162  0.01807531    -0.22100
C64         C  0.48277494  0.32165293  0.46647506     0.00900
H65         H  0.54448920  0.36471783  0.08484610     0.14700
H66         H  0.50505244  0.39897575  0.02105944     0.14700
N67         N  0.74627183  0.28557184  0.02172440    -0.01600
C68         C  0.76011280  0.22242267  0.49148595     0.01000
C69         C  0.77452808  0.18520631  0.50099731    -0.21900
C70         C  0.71090092  0.33029494  0.04926042    -0.22100
C71         C  0.73048019  0.29968001  0.06288636     0.00900
H72         H  0.77120229  0.15234455  0.47647963     0.14700
H73         H  0.69175324  0.34284313  0.07376926     0.14700
N74         N  0.08184494  0.65899499  0.34431525    -0.04200
N75         N  0.10214467  0.69752996  0.38129736    -0.56400
N76         N  0.10719699  0.63887899  0.22641399    -0.03900
N77         N  0.14852384  0.66664485  0.19862361    -0.58500
N78         N  0.08769133  0.66905027  0.22954581    -0.03500
N79         N  0.11569594  0.71808918  0.20305228    -0.56300
N80         N  0.10480677  0.63288997  0.33946089    -0.03200
N81         N  0.14097373  0.65275950  0.37248004    -0.58800
C82         C  0.13898019  0.69285848  0.39824840     0.97900
C83         C  0.15313341  0.71528038  0.18342051     0.97700
N84         N  0.02516606  0.45273311  0.22424833    -0.04400
N85         N  0.02271804  0.41980150  0.18711545    -0.56900
N86         N  0.06900530  0.50540537  0.33726550    -0.02500
N87         N  0.09847454  0.51394138  0.37487112    -0.58200
N88         N  0.02530744  0.45449916  0.34114502    -0.04500
N89         N  0.02453549  0.42713722  0.38233111    -0.57200
N90         N  0.06743337  0.50519199  0.22162935    -0.02200
N91         N  0.09450763  0.50925352  0.18236830    -0.58300
Mn92       Mn  0.08758981  0.57023076  0.28030259     1.18400
C93         C  0.06581144  0.45593621  0.16094200     1.00000
C94         C  0.07082454  0.46512474  0.40271498     1.00700
N95         N  0.97359097  0.62392392  0.22624059    -0.04500
N96         N  0.98025355  0.65790135  0.18812660    -0.60800
N97         N  0.92162473  0.56348609  0.33959333    -0.03300
N98         N  0.89219665  0.55302860  0.37908397    -0.61500
N99         N  0.96555930  0.61402017  0.34442239    -0.04000
N100        N  0.96645968  0.63886093  0.38748697    -0.61100
N101        N  0.93093122  0.57218385  0.22150914    -0.02900
N102        N  0.90809869  0.56993640  0.17978135    -0.61700
Mn103      Mn  0.02691976  0.64343147  0.28667424     1.10700
C104        C  0.93953025  0.62353886  0.15899668     1.01200
C105        C  0.92038638  0.60030049  0.40879209     1.01300
N106        N  0.90904937  0.40948213  0.33718051    -0.04000
N107        N  0.88931591  0.37050244  0.37397342    -0.59400
N108        N  0.89273766  0.43967946  0.21811683    -0.03300
N109        N  0.86202344  0.42143284  0.17925716    -0.56100
N110        N  0.91300503  0.41038283  0.22133617    -0.04600
N111        N  0.89613486  0.37130108  0.18484824    -0.58900
N112        N  0.88514980  0.43449573  0.33337545    -0.03600
N113        N  0.84862584  0.41307350  0.36717616    -0.56100
Mn114      Mn  0.96774725  0.42960078  0.28175827     1.20200
Mn115      Mn  0.90615916  0.50252608  0.27751278     1.10100
Cl116      Cl  0.99708454  0.53648746  0.28154882    -0.84100
C117        C  0.85142989  0.37306329  0.39198949     0.98200
C118        C  0.86430307  0.37859755  0.15896962     0.98000
N119        N  0.17310357  0.49291168  0.01487419    -0.01600
C120        C  0.15080543  0.46537681  0.05867115     0.01000
C121        C  0.17741935  0.44660208  0.08095252    -0.21900
C122        C  0.21826570  0.46463138  0.05005538    -0.22100
C123        C  0.21555110  0.49434137  0.01000579     0.00900
H124        H  0.17018906  0.42582547  0.11736907     0.14700
H125        H  0.24641186  0.45668559  0.05722147     0.14700
N126        N  0.77848760  0.26620336  0.02150789    -0.01600
C127        C  0.79657750  0.25375358  0.06182298     0.01000
C128        C  0.81353858  0.22083704  0.04598980    -0.21900
C129        C  0.81131131  0.21899315  0.99427721    -0.22100
C130        C  0.76255885  0.33389420  0.50236755     0.00900
H131        H  0.83372117  0.20857977  0.06847954     0.14700
H132        H  0.75289940  0.40562876  0.50240469     0.14700
N133        N  0.83475990  0.58894126  0.51610336    -0.01600
C134        C  0.85952135  0.62947681  0.06130778     0.01000
C135        C  0.83078991  0.64057104  0.09132833    -0.21900
C136        C  0.79459020  0.63579945  0.06124553    -0.22100
C137        C  0.79282012  0.58933653  0.51450268     0.00900
H138        H  0.83398212  0.64818843  0.13156330     0.14700
H139        H  0.76654475  0.64264623  0.07352440     0.14700
N140        N  0.24289134  0.83124098  0.03505964    -0.01600
C141        C  0.24333383  0.80968375  0.08058782     0.01000
C142        C  0.26588360  0.78018686  0.07506961    -0.21900
C143        C  0.26311342  0.71920574  0.50784886    -0.22100
C144        C  0.24734143  0.75203286  0.48918405     0.00900
H145        H  0.26783575  0.75345483  0.10288255     0.14700
H146        H  0.26442682  0.68644095  0.48765234     0.14700
N147        N  0.44046239  0.47593613  0.14693311    -0.04200
N148        N  0.40551548  0.43642674  0.11665591    -0.56400
N149        N  0.48799789  0.48151296  0.25843104    -0.03900
N150        N  0.48938628  0.45009748  0.29443250    -0.58500
N151        N  0.44628387  0.47900465  0.26151963    -0.03500
N152        N  0.41844794  0.44589737  0.29991163    -0.56300
N153        N  0.48152970  0.47688084  0.14411866    -0.03200
N154        N  0.47448907  0.43637884  0.11223757    -0.58800
C155        C  0.42686171  0.41186775  0.09564116     0.97900
C156        C  0.44587261  0.42847250  0.32013501     0.97700
N157        N  0.62484766  0.64082910  0.25724249    -0.04400
N158        N  0.65386387  0.66308987  0.29711851    -0.56900
N159        N  0.60087769  0.58466501  0.13835793    -0.02500
N160        N  0.61675199  0.56869369  0.09964031    -0.58200
N161        N  0.62559129  0.64191335  0.13946314    -0.04500
N162        N  0.65792265  0.66562266  0.10120580    -0.57200
N163        N  0.60056107  0.58382869  0.25682251    -0.02200
N164        N  0.61221059  0.56618690  0.29707780    -0.58300
Mn165      Mn  0.54359400  0.53066923  0.19858083     1.18400
C166        C  0.64518355  0.61620818  0.32218217     1.00000
C167        C  0.65243822  0.61983656  0.07664755     1.00700
N168        N  0.41719502  0.56754622  0.26459228    -0.04500
N169        N  0.38943473  0.54527260  0.30603159    -0.60800
N170        N  0.43911740  0.62382714  0.14523180    -0.03300
N171        N  0.42566212  0.64113197  0.10637533    -0.61500
N172        N  0.41340515  0.56655011  0.14613263    -0.04000
N173        N  0.38223273  0.54389076  0.10747215    -0.61100
N174        N  0.44029778  0.62430632  0.26325315    -0.02900
N175        N  0.42791160  0.64155123  0.30366439    -0.61700
Mn176      Mn  0.42792267  0.52138107  0.20483006     1.10700
C177        C  0.39683584  0.59191635  0.33064131     1.01200
C178        C  0.39031357  0.59103784  0.08297864     1.01300
N179        N  0.59812335  0.73349834  0.14495687    -0.04000
N180        N  0.63191791  0.77360101  0.11354630    -0.59400
N181        N  0.55376506  0.72766903  0.25991915    -0.03300
N182        N  0.55313414  0.75921536  0.29664647    -0.56100
N183        N  0.59615445  0.73143259  0.25958823    -0.04600
N184        N  0.62547547  0.76620373  0.29614324    -0.58900
N185        N  0.55667406  0.73182232  0.14519893    -0.03600
N186        N  0.56204570  0.77177304  0.11377632    -0.56100
Mn187      Mn  0.61251854  0.68768175  0.20023669     1.20200
Mn188      Mn  0.49653702  0.67775775  0.20283567     1.10100
Cl189      Cl  0.52020924  0.60443143  0.20093108    -0.84100
C190        C  0.60939921  0.79749196  0.09464146     0.98200
C191        C  0.59810810  0.78297050  0.31889869     0.98000
N192        N  0.43281121  0.29813449  0.44906193    -0.01600
C193        C  0.38710059  0.28662825  0.00850079     0.01000
C194        C  0.34865119  0.24093861  0.45052015    -0.21900
C195        C  0.36435036  0.26435640  0.40290038    -0.22100
C196        C  0.41660259  0.30184174  0.40363238     0.00900
H197        H  0.30482622  0.24170359  0.00584420     0.14700
H198        H  0.34002972  0.26096584  0.37339000     0.14700
N199        N  0.30257141  0.54245960  0.97018385    -0.01600
C200        C  0.29497270  0.52442387  0.43117781     0.01300
C201        C  0.25297697  0.49569542  0.40122892    -0.21900
C202        C  0.21283419  0.48011760  0.43163456    -0.22100
C203        C  0.25345520  0.52377218  0.96855919     0.00900
H204        H  0.25171620  0.48689700  0.36134198     0.14700
H205        H  0.17422853  0.45523909  0.41927657     0.14700
N206        N  0.71786266  0.57273970  0.46648537    -0.01600
C207        C  0.71314529  0.58487442  0.41802102     0.01000
C208        C  0.75564672  0.60150166  0.39002445    -0.21900
C209        C  0.78810987  0.60096990  0.42165029    -0.22100
C210        C  0.76463091  0.58320597  0.46836636     0.00900
H211        H  0.76288530  0.61411168  0.35066624     0.14700
H212        H  0.82625217  0.61651579  0.41162825     0.14700
N213        N  0.58036850  0.84785217  0.48146583    -0.01600
C214        C  0.60720330  0.86710756  0.43781699     0.01000
C215        C  0.65823101  0.90299368  0.44892908    -0.21900
C216        C  0.66421335  0.90858672  0.95474340    -0.22100
C217        C  0.61949387  0.88264086  0.98163801     0.00900
H218        H  0.68947112  0.92190319  0.42243772     0.14700
H219        H  0.70185291  0.93424891  0.96999472     0.14700
C220        C  0.34607349  0.55074716  0.40951491    -0.14600
C221        C  0.36038301  0.58563315  0.36862468    -0.29700
H222        H  0.36723379  0.53351649  0.42077813     0.14500
H223        H  0.33956388  0.60381200  0.35886003     0.15000
C224        C  0.32974148  0.54071097  0.01217077    -0.14600
C225        C  0.36294222  0.58961479  0.03776445    -0.29700
H226        H  0.32300801  0.49955041  0.02304735     0.14500
H227        H  0.36983858  0.63048126  0.02535646     0.15000
C228        C  0.58792902  0.83495395  0.38948778    -0.14600
C229        C  0.61626306  0.82256262  0.36242248    -0.29700
H230        H  0.54883887  0.81508703  0.37978640     0.14500
H231        H  0.65410993  0.83908284  0.37436527     0.15000
C232        C  0.61478334  0.86947123  0.03605005    -0.14600
C233        C  0.63155627  0.83831215  0.05193387    -0.29700
H234        H  0.58596096  0.86881587  0.05789260     0.14500
H235        H  0.65916577  0.83726666  0.02920953     0.15000
C236        C  0.68045255  0.62220612  0.36029066    -0.14600
C237        C  0.67012756  0.58147432  0.39489548    -0.29700
H238        H  0.71853987  0.66160180  0.35745665     0.14500
H239        H  0.63193492  0.54360059  0.40148335     0.15000
C240        C  0.68158976  0.62703751  0.02959223    -0.14600
C241        C  0.69045614  0.58823515  0.01222097    -0.29700
H242        H  0.69989845  0.66859163  0.01006932     0.14500
H243        H  0.67595973  0.54818604  0.03307500     0.15000
C244        C  0.42441310  0.38117896  0.35717707    -0.14600
C245        C  0.44538185  0.35316065  0.37004153    -0.29700
H246        H  0.38791482  0.36693453  0.37284874     0.14500
H247        H  0.48294062  0.36832032  0.35714534     0.15000
C248        C  0.40191241  0.36793124  0.05612938    -0.14600
C249        C  0.39997808  0.31902123  0.05598813    -0.29700
H250        H  0.38460406  0.37635851  0.02581332     0.14500
H251        H  0.41754281  0.31036067  0.08579990     0.15000
C252        C  0.92170995  0.64762198  0.12345411    -0.14600
C253        C  0.89481244  0.61798489  0.08275671    -0.29700
H254        H  0.92545451  0.68731944  0.13450247     0.14500
H255        H  0.89324241  0.58015326  0.06979839     0.15000
C256        C  0.85481857  0.57292261  0.47530485    -0.14600
C257        C  0.90259043  0.60992544  0.45759943    -0.29700
H258        H  0.82846187  0.53428502  0.45361359     0.14500
H259        H  0.92813815  0.65033521  0.47753168     0.15000
C260        C  0.83612265  0.34478972  0.11361165    -0.14600
C261        C  0.81680083  0.28765388  0.10950992    -0.29700
H262        H  0.83195665  0.36743906  0.08319743     0.14500
H263        H  0.82216362  0.26655198  0.14048935     0.15000
C264        C  0.82390135  0.34570086  0.43914760    -0.14600
C265        C  0.78212352  0.34288764  0.45041813    -0.29700
H266        H  0.84070931  0.33316178  0.46647946     0.14500
H267        H  0.76716932  0.35775012  0.42295639     0.15000
C268        C  0.11406830  0.47120675  0.08547460    -0.14600
C269        C  0.08595817  0.43596813  0.12355013    -0.29700
H270        H  0.11481362  0.50978787  0.07776336     0.14500
H271        H  0.08227049  0.39546372  0.13028690     0.15000
C272        C  0.08880054  0.45814399  0.45133019    -0.14600
C273        C  0.13612772  0.49931542  0.46688980    -0.29700
H274        H  0.06361242  0.42018447  0.47466368     0.14500
H275        H  0.16187620  0.53600857  0.44250659     0.15000
C276        C  0.20341137  0.79205464  0.11960818    -0.14600
C277        C  0.20121049  0.76421372  0.16163553    -0.29700
H278        H  0.17024690  0.78973621  0.10820795     0.14500
H279        H  0.23422318  0.76589470  0.17230606     0.15000
C280        C  0.17283631  0.72596421  0.44001251    -0.14600
C281        C  0.21766104  0.73350497  0.44262815    -0.29700
H282        H  0.15927106  0.73994867  0.47024129     0.14500
H283        H  0.22933365  0.71718826  0.41244748     0.15000
C284        C  0.69423160  0.21071298  0.11438273    -0.14600
C285        C  0.71588434  0.26856227  0.11118181    -0.29700
H286        H  0.69307426  0.18593983  0.08219918     0.14500
H287        H  0.71503690  0.29195487  0.14350447     0.15000
C288        C  0.72193728  0.20950182  0.45204075    -0.14600
C289        C  0.70290489  0.16383572  0.42022343    -0.29700
H290        H  0.70460563  0.23296155  0.45277338     0.14500
H291        H  0.71726953  0.13728858  0.42028882     0.15000
C292        C  0.52927943  0.25694168  0.11752989    -0.14600
C293        C  0.49958916  0.24015774  0.07687065    -0.29700
H294        H  0.56127884  0.30202077  0.12104177     0.14500
H295        H  0.46966537  0.19430843  0.07189978     0.15000
C296        C  0.47545987  0.22998117  0.46014563    -0.14600
C297        C  0.50716771  0.21514488  0.45065520    -0.29700
H298        H  0.44103933  0.20913187  0.43845168     0.14500
H299        H  0.54351471  0.23921281  0.46902920     0.15000
C300        C  0.31157831  0.94308547  0.10616512    -0.14600
C301        C  0.26450079  0.92945400  0.10908518    -0.29700
H302        H  0.32424493  0.93342215  0.07201584     0.14500
H303        H  0.25177239  0.93952911  0.14294967     0.15000
C304        C  0.27319110  0.86861193  0.43287951    -0.14600
C305        C  0.29237981  0.91847200  0.40677079    -0.29700
H306        H  0.29022554  0.84510913  0.42724310     0.14500
H307        H  0.27916454  0.94560435  0.41460088     0.15000
C308        C  0.47071505  0.85289723  0.06238867    -0.14600
C309        C  0.50957954  0.90272061  0.08291710    -0.29700
H310        H  0.43405830  0.82934693  0.08094902     0.14500
H311        H  0.54696387  0.92314323  0.06645876     0.15000
C312        C  0.52228934  0.90216938  0.46328331    -0.14600
C313        C  0.48400824  0.88843251  0.43313162    -0.29700
H314        H  0.56063449  0.93623497  0.45184145     0.14500
H315        H  0.44613037  0.85201100  0.44348456     0.15000
N316        N  0.51055202  0.84848191  0.98192258    -0.01600
C317        C  0.52885201  0.81747129  0.96800590     0.01000
C318        C  0.49634350  0.77222314  0.51619726    -0.21900
C319        C  0.46341734  0.77821123  0.54425515    -0.22100
C320        C  0.47600058  0.83359527  0.53487619     0.00900
H321        H  0.50162473  0.73768072  0.52053601     0.14700
H322        H  0.43828765  0.74875959  0.57366280     0.14700
N323        N  0.23569506  0.87625869  0.02699025    -0.01600
C324        C  0.23513570  0.89972851  0.98243457     0.01000
C325        C  0.21900480  0.93552549  0.99175529    -0.21900
C326        C  0.21503079  0.88807185  0.53730408    -0.22100
C327        C  0.23543643  0.86050891  0.55738420     0.00900
H328        H  0.21708762  0.96340197  0.96534846     0.14700
H329        H  0.20843359  0.91727002  0.55653333     0.14700
N330        N  0.60397135  0.17226004  0.82267393    -0.04200
N331        N  0.63502941  0.21203196  0.85552351    -0.56400
N332        N  0.60829076  0.12160798  0.71337737    -0.03900
N333        N  0.64386868  0.12722708  0.68368397    -0.58500
N334        N  0.60698448  0.16750735  0.70897876    -0.03500
N335        N  0.64105994  0.20489706  0.67617950    -0.56300
N336        N  0.60221304  0.12441406  0.82806431    -0.03200
N337        N  0.63194871  0.13078136  0.86528436    -0.58800
C338        C  0.65240948  0.18592285  0.88182859     0.97900
C339        C  0.66399971  0.17957855  0.66115431     0.97700
N340        N  0.47055619  0.95443343  0.70918909    -0.04400
N341        N  0.45559247  0.92114582  0.66832049    -0.56900
N342        N  0.51407123  0.98769586  0.82947512    -0.02500
N343        N  0.52841674  0.97377492  0.87002744    -0.58200
N344        N  0.46456645  0.95582454  0.82713926    -0.04500
N345        N  0.44435160  0.92008214  0.86618041    -0.57200
N346        N  0.52012290  0.98666520  0.71192303    -0.02200
N347        N  0.53958982  0.97608914  0.67309160    -0.58300
Mn348      Mn  0.56182476  0.05388716  0.77110767     1.18400
C349        C  0.49922521  0.93523013  0.64613340     1.00000
C350        C  0.48448557  0.93183245  0.89274243     1.00700
N351        N  0.52328350  0.19208055  0.69977170    -0.04500
N352        N  0.54101533  0.22450394  0.65821143    -0.60800
N353        N  0.47105265  0.16172088  0.81905255    -0.03300
N354        N  0.45430367  0.16820387  0.86254511    -0.61500
N355        N  0.52058965  0.19381571  0.81829978    -0.04000
N356        N  0.53850148  0.22236211  0.86095644    -0.61100
N357        N  0.47375459  0.15988149  0.70016393    -0.02900
N358        N  0.45680967  0.16908165  0.65895855    -0.61700
Mn359      Mn  0.56418497  0.18317176  0.76177960     1.10700
C360        C  0.49888536  0.20950259  0.63309405     1.01200
C361        C  0.49707730  0.20630307  0.88808654     1.01300
N362        N  0.38082385  0.98043830  0.82015310    -0.04000
N363        N  0.34512169  0.94366432  0.85262017    -0.59400
N364        N  0.38755069  0.02692669  0.70373911    -0.03300
N365        N  0.35556319  0.02186914  0.67022034    -0.56100
N366        N  0.38621583  0.97910892  0.70549178    -0.04600
N367        N  0.35311893  0.94044099  0.67319882    -0.58900
N368        N  0.38282754  0.02864041  0.81727234    -0.03600
N369        N  0.34852288  0.02552950  0.84695691    -0.56100
Mn370      Mn  0.42478869  0.96535452  0.76548079     1.20200
Mn371      Mn  0.42840056  0.09556125  0.76005900     1.10100
Cl372      Cl  0.49479632  0.07432310  0.76451644    -0.84100
C373        C  0.32567530  0.97284699  0.86917022     0.98200
C374        C  0.33465137  0.96794498  0.65132269     0.98000
N375        N  0.47260049  0.26686647  0.00028154    -0.01600
C376        C  0.52768384  0.31249212  0.52146273     0.01000
C377        C  0.54029566  0.36860830  0.52607667    -0.21900
C378        C  0.51135868  0.37417527  0.49177415    -0.22100
C379        C  0.47024794  0.31184246  0.98774665     0.00900
H380        H  0.56266985  0.39926205  0.55563777     0.14700
H381        H  0.50643525  0.40922761  0.49077065     0.14700
N382        N  0.76795714  0.25397564  0.53405871    -0.01600
C383        C  0.72992782  0.30033147  0.98143685     0.01000
C384        C  0.71066830  0.33082610  0.99760361    -0.21900
C385        C  0.78328907  0.18778731  0.55180326    -0.22100
C386        C  0.77389397  0.22607487  0.57192844     0.00900
H387        H  0.69141193  0.34409499  0.97475607     0.14700
H388        H  0.78515859  0.15587378  0.57251302     0.14700
N389        N  0.09388058  0.68426666  0.84813663    -0.04200
N390        N  0.11143901  0.72550193  0.88268811    -0.56400
N391        N  0.12153012  0.65954475  0.73410591    -0.03900
N392        N  0.15661951  0.68013352  0.69886790    -0.58500
N393        N  0.09670162  0.68357139  0.73134805    -0.03500
N394        N  0.11421460  0.72060850  0.69276445    -0.56300
N395        N  0.11962181  0.66116995  0.84805682    -0.03200
N396        N  0.15560374  0.68677959  0.88193151    -0.58800
C397        C  0.15001507  0.72670768  0.90321314     0.97900
C398        C  0.15204901  0.71829338  0.67335701     0.97700
N399        N  0.04780102  0.47860663  0.73346198    -0.04400
N400        N  0.04094926  0.45288426  0.68967382    -0.56900
N401        N  0.08888763  0.53224636  0.85015318    -0.02500
N402        N  0.11682917  0.54006128  0.88930895    -0.58200
N403        N  0.04669853  0.47952669  0.85068232    -0.04500
N404        N  0.04530007  0.45029624  0.89051082    -0.57200
N405        N  0.08984141  0.53126736  0.73255748    -0.02200
N406        N  0.11162805  0.54178044  0.68768054    -0.58300
Mn407      Mn  0.10626575  0.59608474  0.79145774     1.18400
C408        C  0.08061665  0.49263022  0.66064598     1.00000
C409        C  0.08919683  0.48878389  0.91432642     1.00700
N410        N  0.98094845  0.63366090  0.72988406    -0.04500
N411        N  0.98400013  0.66309642  0.68951304    -0.60800
N412        N  0.93421123  0.58096338  0.84664561    -0.03300
N413        N  0.90352547  0.57344179  0.88395607    -0.61500
N414        N  0.97653011  0.63355476  0.84811869    -0.04000
N415        N  0.97526825  0.66269268  0.88700993    -0.61100
N416        N  0.93935143  0.58054585  0.72906397    -0.02900
N417        N  0.91383715  0.57245844  0.68775082    -0.61700
Mn418      Mn  0.03715148  0.66081899  0.78956233     1.10700
C419        C  0.94231251  0.62403851  0.66310522     1.01200
C420        C  0.92939096  0.62464982  0.90905317     1.01300
N421        N  0.93043773  0.42868635  0.84712048    -0.04000
N422        N  0.91059998  0.38653299  0.88094050    -0.59400
N423        N  0.90740790  0.45183280  0.73250470    -0.03300
N424        N  0.87179026  0.42805368  0.69836997    -0.56100
N425        N  0.93225816  0.42771163  0.73170429    -0.04600
N426        N  0.91425059  0.38735626  0.69594916    -0.58900
N427        N  0.90623239  0.45360623  0.84708053    -0.03600
N428        N  0.86998983  0.42971673  0.88145053    -0.56100
Mn429      Mn  0.98940346  0.45178745  0.79098068     1.20200
Mn430      Mn  0.92075695  0.51673664  0.78887133     1.10100
Cl431      Cl  0.01340351  0.55642137  0.79044734    -0.84100
C432        C  0.87327524  0.38809845  0.90197876     0.98200
C433        C  0.87617382  0.38789602  0.67581252     0.98000
N434        N  0.15520817  0.49512780  0.51431486    -0.01600
C435        C  0.13728178  0.49653324  0.56023111     0.01000
C436        C  0.16815076  0.49876205  0.59722540    -0.21900
C437        C  0.20684764  0.50022149  0.57261124    -0.22100
C438        C  0.19860817  0.49905237  0.52134321     0.00900
H439        H  0.16453649  0.50100001  0.63753412     0.14700
H440        H  0.23733056  0.50191517  0.59069532     0.14700
N441        N  0.76865710  0.30519572  0.53945815    -0.01600
C442        C  0.77124188  0.33284716  0.58304557     0.01000
C443        C  0.76017225  0.37275639  0.57379756    -0.21900
C444        C  0.75467943  0.37344059  0.52278033    -0.22100
C445        C  0.79330890  0.25113861  0.98011392     0.00900
H446        H  0.76268457  0.40374710  0.60035481     0.14700
H447        H  0.83050606  0.20625798  0.97006595     0.14700
N448        N  0.84257629  0.61852917  0.01328874    -0.01600
C449        C  0.85379406  0.60725092  0.56301625     0.01000
C450        C  0.82465480  0.61977713  0.59054415    -0.21900
C451        C  0.78627189  0.60858968  0.55995310    -0.22100
C452        C  0.80192129  0.62160078  0.01359207     0.00900
H453        H  0.82972503  0.63371014  0.62941593     0.14700
H454        H  0.75818910  0.61638970  0.56964301     0.14700
N455        N  0.24468456  0.78322464  0.52667527    -0.01600
C456        C  0.25068472  0.76234305  0.57021921     0.01000
C457        C  0.26543585  0.72592986  0.55918470    -0.21900
C458        C  0.27330426  0.77776906  0.02432404    -0.22100
C459        C  0.25486517  0.80528550  0.00026566     0.00900
H460        H  0.26912122  0.69939714  0.58576227     0.14700
H461        H  0.28140262  0.74889340  0.00705874     0.14700
N462        N  0.42069533  0.41817559  0.63869136    -0.04200
N463        N  0.38548689  0.37854759  0.60880156    -0.56400
N464        N  0.46602641  0.41606815  0.74881578    -0.03900
N465        N  0.46516316  0.37983745  0.78149718    -0.58500
N466        N  0.42392129  0.41275166  0.75165568    -0.03500
N467        N  0.39316222  0.37350294  0.78539461    -0.56300
N468        N  0.46223104  0.42020462  0.63456718    -0.03200
N469        N  0.45526750  0.38039143  0.60192850    -0.58800
C470        C  0.40709832  0.35497356  0.58657179     0.97900
C471        C  0.41933388  0.35373712  0.80395193     0.97700
N472        N  0.60029230  0.57724327  0.75608624    -0.04400
N473        N  0.62427659  0.59500312  0.79946316    -0.56900
N474        N  0.58201670  0.53025181  0.63288140    -0.02500
N475        N  0.59923283  0.51828504  0.59244942    -0.58200
N476        N  0.60596594  0.58714014  0.63762068    -0.04500
N477        N  0.63875524  0.61454582  0.60020687    -0.57200
N478        N  0.57774121  0.52076814  0.75088038    -0.02200
N479        N  0.58610941  0.49915533  0.79043561    -0.58300
Mn480      Mn  0.52320503  0.47107987  0.69067164     1.18400
C481        C  0.61465726  0.54564909  0.82074732     1.00000
C482        C  0.63475032  0.57156269  0.57234750     1.00700
N483        N  0.39671032  0.50358922  0.76105905    -0.04500
N484        N  0.37333513  0.48098212  0.80457620    -0.60800
N485        N  0.41567108  0.56320562  0.64325991    -0.03300
N486        N  0.39895132  0.57904783  0.60583100    -0.61500
N487        N  0.39172830  0.50616383  0.64374441    -0.04000
N488        N  0.35931034  0.48233480  0.60650792    -0.61100
N489        N  0.42015089  0.56046104  0.76120415    -0.02900
N490        N  0.41374089  0.57781128  0.80504546    -0.61700
Mn491      Mn  0.40707416  0.45970490  0.69897927     1.10700
C492        C  0.38463735  0.52785860  0.83174714     1.01200
C493        C  0.36343042  0.52775986  0.58343479     1.01300
N494        N  0.57644097  0.67583723  0.64630165    -0.04000
N495        N  0.61125377  0.71965965  0.61825098    -0.59400
N496        N  0.53029588  0.66545311  0.75984574    -0.03300
N497        N  0.53026785  0.69929887  0.79463038    -0.56100
N498        N  0.57243503  0.66881919  0.76070345    -0.04600
N499        N  0.60213381  0.70549823  0.79614793    -0.58900
N500        N  0.53428919  0.67274874  0.64626372    -0.03600
N501        N  0.54030311  0.71574058  0.61891378    -0.56100
Mn502      Mn  0.59028417  0.62792096  0.70037201     1.20200
Mn503      Mn  0.47397408  0.61610455  0.70168593     1.10100
Cl504      Cl  0.49874391  0.54377945  0.69713446    -0.84100
C505        C  0.58843247  0.74417395  0.60167348     0.98200
C506        C  0.57516782  0.72369975  0.81725700     0.98000
N507        N  0.42261812  0.29988456  0.97343450    -0.01600
C508        C  0.39180898  0.26377982  0.47839342     0.01000
C509        C  0.33989680  0.25473388  0.98770652    -0.21900
C510        C  0.34688487  0.24787518  0.93765060    -0.22100
C511        C  0.39867496  0.27819703  0.92909469     0.00900
H512        H  0.31039189  0.21730162  0.46491703     0.14700
H513        H  0.31717090  0.22765980  0.91014387     0.14700
N514        N  0.28204506  0.52653786  0.47982293    -0.01600
C515        C  0.32230876  0.56490921  0.92404578     0.01300
C516        C  0.28668623  0.56147687  0.89346951    -0.21900
C517        C  0.24302847  0.53481852  0.92116117    -0.22100
C518        C  0.23123476  0.50139956  0.47944201     0.00900
H519        H  0.29054092  0.57132494  0.85356942     0.14700
H520        H  0.20717241  0.52135113  0.90598215     0.14700
N521        N  0.72401403  0.60222664  0.96932530    -0.01600
C522        C  0.71290732  0.60136478  0.91996722     0.01000
C523        C  0.75323111  0.61584098  0.88939537    -0.21900
C524        C  0.79055540  0.62533506  0.92029445    -0.22100
C525        C  0.77174576  0.61525955  0.96909938     0.00900
H526        H  0.75529237  0.61942683  0.84869638     0.14700
H527        H  0.82776911  0.63966688  0.90773341     0.14700
N528        N  0.58029994  0.84769550  0.95104377    -0.01600
C529        C  0.59961955  0.84603205  0.90615375     0.01000
C530        C  0.65163873  0.88602925  0.90674371    -0.21900
C531        C  0.66227176  0.90182235  0.50039802    -0.22100
C532        C  0.61369424  0.86668739  0.51925925     0.00900
H533        H  0.67813485  0.89254165  0.87770567     0.14700
H534        H  0.69664364  0.91846949  0.52086776     0.14700
C535        C  0.36633261  0.57059138  0.90160045    -0.14600
C536        C  0.35842517  0.52323909  0.87881995    -0.29700
H537        H  0.39747487  0.61383207  0.88956100     0.14500
H538        H  0.32569837  0.48021953  0.88936068     0.15000
C539        C  0.31471353  0.54620869  0.52320655    -0.14600
C540        C  0.33802241  0.52051313  0.53485691    -0.29700
H541        H  0.31535904  0.57630903  0.54959938     0.14500
H542        H  0.33202514  0.48593756  0.51039119     0.15000
C543        C  0.57332193  0.79633952  0.87052048    -0.14600
C544        C  0.59728409  0.77310109  0.85248989    -0.29700
H545        H  0.53401604  0.77663983  0.86190781     0.14500
H546        H  0.63556632  0.79105869  0.86408723     0.15000
C547        C  0.60018257  0.83215478  0.56573930    -0.14600
C548        C  0.61422214  0.79576985  0.56914758    -0.29700
H549        H  0.56985061  0.82567906  0.58951592     0.14500
H550        H  0.64378325  0.80155868  0.54444309     0.15000
C551        C  0.64465351  0.54544472  0.86169445    -0.14600
C552        C  0.66490122  0.58556055  0.89850563    -0.29700
H553        H  0.65596060  0.51585571  0.85755702     0.14500
H554        H  0.65312659  0.61441226  0.90460057     0.15000
C555        C  0.66431095  0.58373003  0.52442154    -0.14600
C556        C  0.68126529  0.55224899  0.50768868    -0.29700
H557        H  0.67769609  0.62439182  0.50514770     0.14500
H558        H  0.67283178  0.51502053  0.52977127     0.15000
C559        C  0.39744244  0.30736604  0.84222926    -0.14600
C560        C  0.42384116  0.30506716  0.87978317    -0.29700
H561        H  0.35673059  0.28171686  0.84446091     0.14500
H562        H  0.46474786  0.33363475  0.87847694     0.15000
C563        C  0.38220181  0.31264436  0.54600461    -0.14600
C564        C  0.39488141  0.27677026  0.53235511    -0.29700
H565        H  0.35673815  0.31639273  0.52281039     0.14500
H566        H  0.42149573  0.27466533  0.55497912     0.15000
C567        C  0.92193348  0.64053382  0.62290962    -0.14600
C568        C  0.89236972  0.60269594  0.58677088    -0.29700
H569        H  0.92568872  0.68146257  0.62708363     0.14500
H570        H  0.89059871  0.56319798  0.58063700     0.15000
C571        C  0.86166629  0.60242101  0.97151727    -0.14600
C572        C  0.91014105  0.63757204  0.95501680    -0.29700
H573        H  0.83497511  0.56365825  0.95009882     0.14500
H574        H  0.93589088  0.67818580  0.97465788     0.15000
C575        C  0.84425966  0.35244036  0.63268362    -0.14600
C576        C  0.79660605  0.33729147  0.63075015    -0.29700
H577        H  0.86181991  0.34734483  0.59997487     0.14500
H578        H  0.78117381  0.34439451  0.66424985     0.15000
C579        C  0.83854639  0.34729016  0.94036465    -0.14600
C580        C  0.81689338  0.28981374  0.93595169    -0.29700
H581        H  0.83301868  0.36551504  0.97377769     0.14500
H582        H  0.82415022  0.27310490  0.90248873     0.15000
C583        C  0.09409459  0.50139925  0.56640161    -0.14600
C584        C  0.06961782  0.49851165  0.60855695    -0.29700
H585        H  0.07925577  0.50695755  0.53225538     0.14500
H586        H  0.03734313  0.50048133  0.60397258     0.15000
C587        C  0.10732253  0.47411787  0.95846616    -0.14600
C588        C  0.15264065  0.51249616  0.97915261    -0.29700
H589        H  0.08448496  0.42944261  0.97225010     0.14500
H590        H  0.17657766  0.55685252  0.96474150     0.15000
C591        C  0.22628180  0.75564067  0.61987607    -0.14600
C592        C  0.18091863  0.74652156  0.62629529    -0.29700
H593        H  0.24229267  0.74723192  0.65152621     0.14500
H594        H  0.16281180  0.75306516  0.59563775     0.15000
C595        C  0.18113525  0.76551579  0.94475383    -0.14600
C596        C  0.22806650  0.78027924  0.95210960    -0.29700
H597        H  0.16405431  0.77930810  0.97105167     0.14500
H598        H  0.24393436  0.76503936  0.92564330     0.15000
C599        C  0.69861972  0.20130017  0.61819302    -0.14600
C600        C  0.74309462  0.20804630  0.61870182    -0.29700
H601        H  0.68737735  0.21410815  0.58542922     0.14500
H602        H  0.75388976  0.19436102  0.65126976     0.15000
C603        C  0.71456097  0.27155565  0.93151770    -0.14600
C604        C  0.68563484  0.21311517  0.92618411    -0.29700
H605        H  0.71635925  0.29810563  0.90063443     0.14500
H606        H  0.68201949  0.18523107  0.95674912     0.15000
C607        C  0.49680071  0.23398486  0.58432466    -0.14600
C608        C  0.53603791  0.28302500  0.56277996    -0.29700
H609        H  0.45969702  0.21343466  0.56800073     0.14500
H610        H  0.57241549  0.30677592  0.58109051     0.15000
C611        C  0.46167585  0.22301455  0.96401008    -0.14600
C612        C  0.50051818  0.22905983  0.93903827    -0.29700
H613        H  0.42424405  0.19643643  0.94802215     0.14500
H614        H  0.53824562  0.25947151  0.95349538     0.15000
C615        C  0.29192452  0.94014551  0.61672434    -0.14600
C616        C  0.27126904  0.88571825  0.59991262    -0.29700
H617        H  0.27948420  0.96634206  0.60326748     0.14500
H618        H  0.28846220  0.86422211  0.61180364     0.15000
C619        C  0.26941442  0.91012938  0.93910936    -0.14600
C620        C  0.28151488  0.94951090  0.90276722    -0.29700
H621        H  0.29237587  0.89356533  0.94143008     0.14500
H622        H  0.26245082  0.97093642  0.90059115     0.15000
C623        C  0.46586977  0.86487719  0.57326559    -0.14600
C624        C  0.50440340  0.91024600  0.59871799    -0.29700
H625        H  0.42756881  0.84422634  0.58714010     0.14500
H626        H  0.54263314  0.92743382  0.58646388     0.15000
C627        C  0.51919403  0.89709032  0.95343592    -0.14600
C628        C  0.47980940  0.89532572  0.93547721    -0.29700
H629        H  0.55650118  0.92816052  0.93758302     0.14500
H630        H  0.44207415  0.86109117  0.94841201     0.15000
loop_ 
_geom_bond_atom_site_label_1 
_geom_bond_atom_site_label_2 
_geom_bond_distance 
_geom_bond_site_symmetry_2 
_ccdc_geom_bond_type 
N1            C2   1.351       .  A
N1          C320   1.358       .  A
N1          C312   1.437       .  S
C2          N213   1.439       .  S
C2          C318   1.385       .  A
C3            C4   1.385   1_556  A
C3          C317   1.386       .  A
C3            H6   1.082   1_556  S
C4            C5   1.382       .  A
C4            H7   1.080       .  S
C5          N316   1.354   1_554  A
C5          C308   1.491       .  S
N8            C9   1.360       .  A
N8          C327   1.353       .  A
N8          N455   1.427       .  S
C9           C10   1.388       .  A
C9          C304   1.503       .  S
C10         C326   1.373       .  A
C10          H13   1.081       .  S
C11          C12   1.377       .  A
C11         C325   1.376   1_554  A
C11          H14   1.083       .  S
C12         N323   1.360       .  A
C12         C301   1.486       .  S
N15          N16   1.327       .  A
N15          N21   1.315       .  A
N15         Mn44   2.207       .  S
N16          C23   1.356       .  A
N17          N19   1.314       .  A
N17          N18   1.327       .  A
N17         Mn33   2.228       .  S
N18          C24   1.361       .  A
N19          N20   1.307       .  A
N19         Mn44   2.147       .  S
N20          C24   1.342       .  A
N21          N22   1.319       .  A
N21         Mn33   2.212       .  S
N22          C23   1.352       .  A
C23         C289   1.482       .  S
C24         C284   1.465       .  S
N25          N31   1.316       .  A
N25          N26   1.327       .  A
N25         Mn55   2.223       .  S
N26          C34   1.356       .  A
N27          N28   1.325       .  A
N27          N29   1.317       .  A
N27         Mn33   2.219   1_565  S
N28          C35   1.355       .  A
N29          N30   1.318       .  A
N29         Mn55   2.190       .  S
N30          C35   1.347       .  A
N31          N32   1.323       .  A
N31         Mn33   2.222   1_565  S
N32          C34   1.354       .  A
Mn33        Cl57   2.549       .  S
C34         C309   1.489       .  S
C35         C313   1.474       .  S
N36          N37   1.320       .  A
N36          N42   1.316       .  A
N36         Mn44   2.208       .  S
N37          C45   1.349       .  A
N38          N40   1.315       .  A
N38          N39   1.327       .  A
N38         Mn56   2.244       .  S
N39          C46   1.362       .  A
N40          N41   1.314       .  A
N40         Mn44   2.154       .  S
N41          C46   1.343       .  A
N42          N43   1.326       .  A
N42         Mn56   2.222       .  S
N43          C45   1.358       .  A
Mn44        Cl57   2.540       .  S
C45         C292   1.480       .  S
C46         C297   1.471       .  S
N47          N48   1.327       .  A
N47          N53   1.317   1_565  A
N47         Mn55   2.227       .  S
N48          C58   1.357       .  A
N49          N50   1.326       .  A
N49          N51   1.318   1_545  A
N49         Mn56   2.234       .  S
N50          C59   1.357   1_545  A
N51          N52   1.317       .  A
N51         Mn55   2.188       .  S
N52          C59   1.346       .  A
N53          N54   1.316   1_545  A
N53         Mn56   2.192       .  S
N54          C58   1.349       .  A
Mn55        Cl57   2.547   1_565  S
Mn56        Cl57   2.557       .  S
C58         C305   1.475       .  S
C59         C300   1.468       .  S
N60          C64   1.350       .  A
N60         C376   1.357       .  A
N60         C296   1.441       .  S
C61         N375   1.354       .  A
C61          C62   1.386       .  A
C61         C293   1.491       .  S
C62          C63   1.380       .  A
C62          H65   1.082       .  S
C63         C379   1.386   1_554  A
C63          H66   1.082       .  S
C64         N192   1.436       .  S
C64         C378   1.384       .  A
N67          C71   1.352       .  A
N67         C383   1.365   1_554  A
N67         N126   1.427       .  S
C68         N382   1.365       .  A
C68          C69   1.391       .  A
C68         C288   1.507       .  S
C69         C385   1.374       .  A
C69          H72   1.080       .  S
C70          C71   1.380       .  A
C70         C384   1.371   1_554  A
C70          H73   1.083       .  S
C71         C285   1.465       .  S
N74          N75   1.324       .  A
N74          N80   1.315       .  A
N74        Mn103   2.206       .  S
N75          C82   1.356       .  A
N76          N78   1.317       .  A
N76          N77   1.315       .  A
N76         Mn92   2.178       .  S
N77          C83   1.346       .  A
N78          N79   1.329       .  A
N78        Mn103   2.239       .  S
N79          C83   1.359       .  A
N80          N81   1.313       .  A
N80         Mn92   2.175       .  S
N81          C82   1.346       .  A
C82         C280   1.464       .  S
C83         C277   1.475       .  S
N84          N90   1.315       .  A
N84          N85   1.319       .  A
N84        Mn114   2.184   1_455  S
N85          C93   1.348       .  A
N86          N87   1.313       .  A
N86          N88   1.315       .  A
N86         Mn92   2.165       .  S
N87          C94   1.343       .  A
N88          N89   1.329       .  A
N88        Mn114   2.240   1_455  S
N89          C94   1.363       .  A
N90          N91   1.317       .  A
N90         Mn92   2.192       .  S
N91          C93   1.353       .  A
Mn92       Cl116   2.514   1_455  S
C93         C269   1.458       .  S
C94         C272   1.481       .  S
N95          N96   1.320       .  A
N95         N101   1.315       .  A
N95        Mn103   2.199   1_655  S
N96         C104   1.351       .  A
N97          N99   1.318       .  A
N97          N98   1.324       .  A
N97        Mn115   2.213       .  S
N98         C105   1.353       .  A
N99         N100   1.328       .  A
N99        Mn103   2.246   1_655  S
N100        C105   1.360       .  A
N101        N102   1.320       .  A
N101       Mn115   2.204       .  S
N102        C104   1.354       .  A
Mn103      Cl116   2.570   1_455  S
C104        C252   1.464       .  S
C105        C257   1.497       .  S
N106        N107   1.321       .  A
N106        N112   1.315       .  A
N106       Mn114   2.194       .  S
N107        C117   1.353       .  A
N108        N109   1.324       .  A
N108        N110   1.317       .  A
N108       Mn115   2.211       .  S
N109        C118   1.354       .  A
N110        N111   1.324       .  A
N110       Mn114   2.230       .  S
N111        C118   1.356       .  A
N112        N113   1.315       .  A
N112       Mn115   2.191       .  S
N113        C117   1.350       .  A
Mn114      Cl116   2.569       .  S
Mn115      Cl116   2.529       .  S
C117        C264   1.465       .  S
C118        C260   1.484       .  S
N119        C123   1.359       .  A
N119        C120   1.347       .  A
N119        C588   1.441   1_554  S
C120        C121   1.381       .  A
C120        C268   1.468       .  S
C121        C122   1.375       .  A
C121        H124   1.082       .  S
C122        C123   1.387       .  A
C122        H125   1.076       .  S
C123        C203   1.487   1_554  S
N126        C127   1.365       .  A
N126        C445   1.354   1_554  A
C127        C128   1.380       .  A
C127        C261   1.493       .  S
C128        C129   1.374   1_554  A
C128        H131   1.082       .  S
C129        C445   1.380       .  A
C129        H447   1.083       .  S
C130        N441   1.359       .  A
C130        C444   1.380       .  A
C130        C265   1.471       .  S
H132        C444   1.083       .  S
N133        C137   1.368       .  A
N133        C449   1.358       .  A
N133        C256   1.453       .  S
C134        N448   1.356       .  A
C134        C135   1.383       .  A
C134        C253   1.476       .  S
C135        C136   1.369       .  A
C135        H138   1.082       .  S
C136        C452   1.383       .  A
C136        H139   1.079       .  S
C137        C451   1.383       .  A
C137        C210   1.486       .  S
N140        C141   1.357       .  A
N140        C459   1.358       .  A
N140        N323   1.426       .  S
C141        C142   1.389       .  A
C141        C276   1.494       .  S
C142        C458   1.373       .  A
C142        H145   1.081       .  S
C143        C144   1.379       .  A
C143        C457   1.372       .  A
C143        H146   1.083       .  S
C144        N455   1.356       .  A
C144        C281   1.473       .  S
N147        N148   1.315       .  A
N147        N153   1.318       .  A
N147       Mn176   2.171       .  S
N148        C155   1.341       .  A
N149        N151   1.315       .  A
N149        N150   1.320       .  A
N149       Mn165   2.183       .  S
N150        C156   1.350       .  A
N151        N152   1.318       .  A
N151       Mn176   2.208       .  S
N152        C156   1.353       .  A
N153        N154   1.325       .  A
N153       Mn165   2.231       .  S
N154        C155   1.359       .  A
C155        C248   1.461       .  S
C156        C244   1.463       .  S
N157        N163   1.314       .  A
N157        N158   1.318       .  A
N157       Mn187   2.192       .  S
N158        C166   1.351       .  A
N159        N160   1.330       .  A
N159        N161   1.319       .  A
N159       Mn165   2.239       .  S
N160        C167   1.360       .  A
N161        N162   1.323       .  A
N161       Mn187   2.240       .  S
N162        C167   1.355       .  A
N163        N164   1.325       .  A
N163       Mn165   2.215       .  S
N164        C166   1.356       .  A
Mn165      Cl189   2.579       .  S
C166        C236   1.471       .  S
C167        C240   1.500       .  S
N168        N169   1.321       .  A
N168        N174   1.313       .  A
N168       Mn176   2.190       .  S
N169        C177   1.352       .  A
N170        N172   1.317       .  A
N170        N171   1.321       .  A
N170       Mn188   2.214       .  S
N171        C178   1.353       .  A
N172        N173   1.326       .  A
N172       Mn176   2.228       .  S
N173        C178   1.357       .  A
N174        N175   1.324       .  A
N174       Mn188   2.225       .  S
N175        C177   1.358       .  A
Mn176      Cl189   2.525       .  S
C177        C221   1.476       .  S
C178        C225   1.488       .  S
N179        N180   1.315       .  A
N179        N185   1.318       .  A
N179       Mn187   2.176       .  S
N180        C190   1.344       .  A
N181        N182   1.321       .  A
N181        N183   1.317       .  A
N181       Mn188   2.182       .  S
N182        C191   1.349       .  A
N183        N184   1.321       .  A
N183       Mn187   2.231       .  S
N184        C191   1.356       .  A
N185        N186   1.326       .  A
N185       Mn188   2.234       .  S
N186        C190   1.360       .  A
Mn187      Cl189   2.526       .  S
Mn188      Cl189   2.574       .  S
C190        C233   1.468       .  S
C191        C229   1.472       .  S
N192        C196   1.349       .  A
N192        C508   1.346       .  A
C193        N507   1.348   1_554  A
C193        C509   1.375   1_554  A
C193        C249   1.468       .  S
C194        C195   1.376       .  A
C194        C508   1.381       .  A
C194        H512   1.082       .  S
C195        C196   1.390       .  A
C195        H198   1.083       .  S
C196        C245   1.477       .  S
H197        C509   1.082   1_554  S
N199        C203   1.363       .  A
N199        C515   1.353       .  A
N199        C224   1.447   1_556  S
C200        N514   1.364       .  A
C200        C201   1.377       .  A
C200        C220   1.482       .  S
C201        C202   1.365       .  A
C201        H204   1.082       .  S
C202        C518   1.387       .  A
C202        H205   1.080       .  S
C203        C517   1.388       .  A
N206        C210   1.371       .  A
N206        C207   1.364       .  A
N206        C556   1.458       .  S
C207        C208   1.382       .  A
C207        C237   1.483       .  S
C208        C209   1.361       .  A
C208        H211   1.083       .  S
C209        C210   1.383       .  A
C209        H212   1.079       .  S
N213        C214   1.354       .  A
N213        C532   1.348       .  A
C214        C215   1.391       .  A
C214        C228   1.487       .  S
C215        C531   1.376       .  A
C215        H218   1.082       .  S
C216        C217   1.382       .  A
C216        C530   1.378       .  A
C216        H219   1.082       .  S
C217        N528   1.350       .  A
C217        C232   1.476   1_556  S
C220        C221   1.350       .  D
C220        H222   1.086       .  S
C221        H223   1.088       .  S
C224        C225   1.347       .  D
C224        H226   1.083       .  S
C225        H227   1.085       .  S
C228        C229   1.353       .  D
C228        H230   1.086       .  S
C229        H231   1.085       .  S
C232        C233   1.338       .  D
C232        H234   1.085       .  S
C233        H235   1.088       .  S
C236        C237   1.349       .  D
C236        H238   1.087       .  S
C237        H239   1.085       .  S
C240        C241   1.353       .  D
C240        H242   1.086       .  S
C241        N521   1.455   1_554  S
C241        H243   1.086       .  S
C244        C245   1.348       .  D
C244        H246   1.086       .  S
C245        H247   1.085       .  S
C248        C249   1.335       .  D
C248        H250   1.087       .  S
C249        H251   1.086       .  S
C252        C253   1.342       .  D
C252        H254   1.087       .  S
C253        H255   1.086       .  S
C256        C257   1.355       .  D
C256        H258   1.085       .  S
C257        H259   1.084       .  S
C260        C261   1.347       .  D
C260        H262   1.085       .  S
C261        H263   1.087       .  S
C264        C265   1.341       .  D
C264        H266   1.085       .  S
C265        H267   1.087       .  S
C268        C269   1.334       .  D
C268        H270   1.087       .  S
C269        H271   1.086       .  S
C272        C273   1.354       .  D
C272        H274   1.085       .  S
C273        N434   1.443       .  S
C273        H275   1.086       .  S
C276        C277   1.341       .  D
C276        H278   1.086       .  S
C277        H279   1.085       .  S
C280        C281   1.346       .  D
C280        H282   1.085       .  S
C281        H283   1.088       .  S
C284        C285   1.349       .  D
C284        H286   1.086       .  S
C285        H287   1.087       .  S
C288        C289   1.352       .  D
C288        H290   1.083       .  S
C289        H291   1.081       .  S
C292        C293   1.346       .  D
C292        H294   1.085       .  S
C293        H295   1.086       .  S
C296        C297   1.333       .  D
C296        H298   1.087       .  S
C297        H299   1.086       .  S
C300        C301   1.346       .  D
C300        H302   1.087       .  S
C301        H303   1.087       .  S
C304        C305   1.348       .  D
C304        H306   1.085       .  S
C305        H307   1.084       .  S
C308        C309   1.350       .  D
C308        H310   1.086       .  S
C309        H311   1.087       .  S
C312        C313   1.342       .  D
C312        H314   1.086       .  S
C313        H315   1.086       .  S
N316        C317   1.352       .  A
N316        C627   1.439       .  S
C317        N528   1.437       .  S
C318        C319   1.382       .  A
C318        H321   1.082       .  S
C319        C320   1.382       .  A
C319        H322   1.082       .  S
C320        C623   1.493       .  S
N323        C324   1.360   1_554  A
C324        C325   1.392       .  A
C324        C619   1.498       .  S
C325        H328   1.080       .  S
C326        C327   1.385       .  A
C326        H329   1.082       .  S
C327        C616   1.485       .  S
N330        N331   1.319       .  A
N330        N336   1.317       .  A
N330       Mn359   2.208       .  S
N331        C338   1.352       .  A
N332        N334   1.317       .  A
N332        N333   1.322       .  A
N332       Mn348   2.214       .  S
N333        C339   1.354       .  A
N334        N335   1.316       .  A
N334       Mn359   2.176       .  S
N335        C339   1.347       .  A
N336        N337   1.327       .  A
N336       Mn348   2.226       .  S
N337        C338   1.358       .  A
C338        C604   1.485       .  S
C339        C599   1.456       .  S
N340        N346   1.319       .  A
N340        N341   1.329       .  A
N340       Mn370   2.235       .  S
N341        C349   1.359       .  A
N342        N343   1.323       .  A
N342        N344   1.317       .  A
N342       Mn348   2.214   1_565  S
N343        C350   1.355       .  A
N344        N345   1.321       .  A
N344       Mn370   2.205       .  S
N345        C350   1.351       .  A
N346        N347   1.321       .  A
N346       Mn348   2.223   1_565  S
N347        C349   1.353       .  A
Mn348      Cl372   2.554       .  S
C349        C624   1.492       .  S
C350        C628   1.477       .  S
N351        N352   1.329       .  A
N351        N357   1.315       .  A
N351       Mn359   2.228       .  S
N352        C360   1.359       .  A
N353        N355   1.315       .  A
N353        N354   1.326       .  A
N353       Mn371   2.210       .  S
N354        C361   1.356       .  A
N355        N356   1.316       .  A
N355       Mn359   2.184       .  S
N356        C361   1.346       .  A
N357        N358   1.320       .  A
N357       Mn371   2.204       .  S
N358        C360   1.351       .  A
Mn359      Cl372   2.546       .  S
C360        C607   1.487       .  S
C361        C612   1.471       .  S
N362        N363   1.326       .  A
N362        N368   1.317   1_565  A
N362       Mn370   2.226       .  S
N363        C373   1.357       .  A
N364        N365   1.319       .  A
N364        N366   1.316   1_545  A
N364       Mn371   2.187       .  S
N365        C374   1.349   1_545  A
N366        N367   1.319       .  A
N366       Mn370   2.203       .  S
N367        C374   1.353       .  A
N368        N369   1.317       .  A
N368       Mn371   2.189       .  S
N369        C373   1.347   1_545  A
Mn370      Cl372   2.552   1_565  S
Mn371      Cl372   2.546       .  S
C373        C620   1.474       .  S
C374        C615   1.468       .  S
N375        C379   1.349   1_554  A
N375        C611   1.435   1_554  S
C376        C377   1.384       .  A
C376        C608   1.493       .  S
C377        C378   1.387       .  A
C377        H380   1.082       .  S
C378        H381   1.082       .  S
C379        N507   1.435       .  S
N382        C386   1.357       .  A
N382        N441   1.429       .  S
C383        C384   1.381       .  A
C383        C603   1.483       .  S
C384        H387   1.083       .  S
C385        C386   1.377       .  A
C385        H388   1.083       .  S
C386        C600   1.480       .  S
N389        N390   1.322       .  A
N389        N395   1.318       .  A
N389       Mn418   2.214       .  S
N390        C397   1.353       .  A
N391        N393   1.316       .  A
N391        N392   1.314       .  A
N391       Mn407   2.171       .  S
N392        C398   1.347       .  A
N393        N394   1.329       .  A
N393       Mn418   2.246       .  S
N394        C398   1.361       .  A
N395        N396   1.320       .  A
N395       Mn407   2.204       .  S
N396        C397   1.353       .  A
C397        C595   1.474       .  S
C398        C592   1.480       .  S
N399        N405   1.313       .  A
N399        N400   1.317       .  A
N399       Mn429   2.188   1_455  S
N400        C408   1.351       .  A
N401        N402   1.319       .  A
N401        N403   1.316       .  A
N401       Mn407   2.188       .  S
N402        C409   1.350       .  A
N403        N404   1.324       .  A
N403       Mn429   2.229   1_455  S
N404        C409   1.357       .  A
N405        N406   1.322       .  A
N405       Mn407   2.216       .  S
N406        C408   1.357       .  A
Mn407      Cl431   2.542       .  S
C408        C584   1.465       .  S
C409        C587   1.478       .  S
N410        N411   1.322       .  A
N410        N416   1.315       .  A
N410       Mn418   2.208   1_655  S
N411        C419   1.354       .  A
N412        N414   1.317       .  A
N412        N413   1.324       .  A
N412       Mn430   2.207       .  S
N413        C420   1.352       .  A
N414        N415   1.328       .  A
N414       Mn418   2.253   1_655  S
N415        C420   1.362       .  A
N416        N417   1.320       .  A
N416       Mn430   2.200       .  S
N417        C419   1.352       .  A
Mn418      Cl431   2.562       .  S
C419        C567   1.469       .  S
C420        C572   1.499       .  S
N421        N422   1.318       .  A
N421        N427   1.317       .  A
N421       Mn429   2.194       .  S
N422        C432   1.351       .  A
N423        N424   1.317       .  A
N423        N425   1.316       .  A
N423       Mn430   2.196       .  S
N424        C433   1.350       .  A
N425        N426   1.329       .  A
N425       Mn429   2.233       .  S
N426        C433   1.359       .  A
N427        N428   1.318       .  A
N427       Mn430   2.187       .  S
N428        C432   1.348       .  A
Mn429      Cl431   2.565   1_655  S
Mn430      Cl431   2.536   1_655  S
C432        C579   1.455       .  S
C433        C575   1.485       .  S
N434        C438   1.362       .  A
N434        C435   1.354       .  A
C435        C436   1.386       .  A
C435        C583   1.490       .  S
C436        C437   1.388       .  A
C436        H439   1.080       .  S
C437        C438   1.386       .  A
C437        H440   1.080       .  S
C438        C518   1.501       .  S
N441        C442   1.366       .  A
C442        C443   1.380       .  A
C442        C576   1.483       .  S
C443        C444   1.369       .  A
C443        H446   1.083       .  S
C445        C580   1.473       .  S
N448        C452   1.370       .  A
N448        C571   1.455   1_554  S
C449        C450   1.383       .  A
C449        C568   1.477       .  S
C450        C451   1.371       .  A
C450        H453   1.082       .  S
C451        H454   1.080       .  S
C452        C525   1.486   1_554  S
N455        C456   1.363       .  A
C456        C457   1.382       .  A
C456        C591   1.485       .  S
C457        H460   1.083       .  S
C458        C459   1.379       .  A
C458        H461   1.083       .  S
C459        C596   1.483   1_554  S
N462        N463   1.313       .  A
N462        N468   1.318       .  A
N462       Mn491   2.161       .  S
N463        C470   1.340       .  A
N464        N466   1.316       .  A
N464        N465   1.325       .  A
N464       Mn480   2.205       .  S
N465        C471   1.354       .  A
N466        N467   1.316       .  A
N466       Mn491   2.200       .  S
N467        C471   1.350       .  A
N468        N469   1.324       .  A
N468       Mn480   2.230       .  S
N469        C470   1.359       .  A
C470        C563   1.459       .  S
C471        C559   1.469       .  S
N472        N478   1.315       .  A
N472        N473   1.323       .  A
N472       Mn502   2.205       .  S
N473        C481   1.355       .  A
N474        N475   1.332       .  A
N474        N476   1.318       .  A
N474       Mn480   2.249       .  S
N475        C482   1.362       .  A
N476        N477   1.323       .  A
N476       Mn502   2.230       .  S
N477        C482   1.353       .  A
N478        N479   1.320       .  A
N478       Mn480   2.200       .  S
N479        C481   1.351       .  A
Mn480      Cl504   2.581       .  S
C481        C551   1.469       .  S
C482        C555   1.501       .  S
N483        N484   1.320       .  A
N483        N489   1.314       .  A
N483       Mn491   2.188       .  S
N484        C492   1.351       .  A
N485        N487   1.316       .  A
N485        N486   1.330       .  A
N485       Mn503   2.238       .  S
N486        C493   1.361       .  A
N487        N488   1.319       .  A
N487       Mn491   2.206       .  S
N488        C493   1.350       .  A
N489        N490   1.319       .  A
N489       Mn503   2.191       .  S
N490        C492   1.351       .  A
Mn491      Cl504   2.518       .  S
C492        C536   1.466       .  S
C493        C540   1.487       .  S
N494        N495   1.316       .  A
N494        N500   1.319       .  A
N494       Mn502   2.187       .  S
N495        C505   1.344       .  A
N496        N497   1.321       .  A
N496        N498   1.315       .  A
N496       Mn503   2.186       .  S
N497        C506   1.350       .  A
N498        N499   1.321       .  A
N498       Mn502   2.222       .  S
N499        C506   1.356       .  A
N500        N501   1.323       .  A
N500       Mn503   2.212       .  S
N501        C505   1.356       .  A
Mn502      Cl504   2.518       .  S
Mn503      Cl504   2.575       .  S
C505        C548   1.462       .  S
C506        C544   1.473       .  S
N507        C511   1.353       .  A
C508        C564   1.467       .  S
C509        C510   1.376       .  A
C510        C511   1.396       .  A
C510        H513   1.081       .  S
C511        C560   1.491       .  S
N514        C518   1.371       .  A
N514        C539   1.451       .  S
C515        C516   1.377       .  A
C515        C535   1.462       .  S
C516        C517   1.367       .  A
C516        H519   1.083       .  S
C517        H520   1.078       .  S
N521        C525   1.371       .  A
N521        C522   1.359       .  A
C522        C523   1.379       .  A
C522        C552   1.473       .  S
C523        C524   1.364       .  A
C523        H526   1.083       .  S
C524        C525   1.384       .  A
C524        H527   1.079       .  S
N528        C529   1.353       .  A
C529        C530   1.389       .  A
C529        C543   1.485       .  S
C530        H533   1.082       .  S
C531        C532   1.380       .  A
C531        H534   1.082       .  S
C532        C547   1.469       .  S
C535        C536   1.341       .  D
C535        H537   1.086       .  S
C536        H538   1.088       .  S
C539        C540   1.348       .  D
C539        H541   1.085       .  S
C540        H542   1.086       .  S
C543        C544   1.352       .  D
C543        H545   1.086       .  S
C544        H546   1.086       .  S
C547        C548   1.338       .  D
C547        H549   1.086       .  S
C548        H550   1.088       .  S
C551        C552   1.344       .  D
C551        H553   1.087       .  S
C552        H554   1.085       .  S
C555        C556   1.351       .  D
C555        H557   1.086       .  S
C556        H558   1.086       .  S
C559        C560   1.347       .  D
C559        H561   1.082       .  S
C560        H562   1.087       .  S
C563        C564   1.334       .  D
C563        H565   1.088       .  S
C564        H566   1.086       .  S
C567        C568   1.345       .  D
C567        H569   1.087       .  S
C568        H570   1.087       .  S
C571        C572   1.357       .  D
C571        H573   1.086       .  S
C572        H574   1.085       .  S
C575        C576   1.349       .  D
C575        H577   1.086       .  S
C576        H578   1.088       .  S
C579        C580   1.342       .  D
C579        H581   1.085       .  S
C580        H582   1.087       .  S
C583        C584   1.340       .  D
C583        H585   1.084       .  S
C584        H586   1.088       .  S
C587        C588   1.348       .  D
C587        H589   1.087       .  S
C588        H590   1.087       .  S
C591        C592   1.350       .  D
C591        H593   1.088       .  S
C592        H594   1.085       .  S
C595        C596   1.345       .  D
C595        H597   1.085       .  S
C596        H598   1.087       .  S
C599        C600   1.343       .  D
C599        H601   1.085       .  S
C600        H602   1.086       .  S
C603        C604   1.348       .  D
C603        H605   1.087       .  S
C604        H606   1.086       .  S
C607        C608   1.347       .  D
C607        H609   1.087       .  S
C608        H610   1.086       .  S
C611        C612   1.338       .  D
C611        H613   1.086       .  S
C612        H614   1.087       .  S
C615        C616   1.342       .  D
C615        H617   1.084       .  S
C616        H618   1.079       .  S
C619        C620   1.343       .  D
C619        H621   1.083       .  S
C620        H622   1.083       .  S
C623        C624   1.350       .  D
C623        H625   1.086       .  S
C624        H626   1.087       .  S
C627        C628   1.343       .  D
C627        H629   1.086       .  S
C628        H630   1.086       .  S
