geometry optimzed in LAMMPS
_audit_creation_date              2020-12-01 
_audit_creation_method            'lammps2cif' 
_symmetry_space_group_name_H-M    'P1' 
_symmetry_Int_Tables_number       1 
_symmetry_cell_setting            triclinic 
loop_ 
_symmetry_equiv_pos_as_xyz 
  x,y,z 
_cell_length_a                    43.42369068 
_cell_length_b                    43.33750113300105 
_cell_length_c                    39.400856970707835 
_cell_angle_alpha                 89.72990780124896 
_cell_angle_beta                  89.67715162331885 
_cell_angle_gamma                 90.9318757407261 
loop_ 
_atom_site_label 
_atom_site_type_symbol 
_atom_site_fract_x 
_atom_site_fract_y 
_atom_site_fract_z 
_atom_site_charge 
O1          O  0.47898661  0.46138420  0.45432876    -0.80400
O2          O  0.02986379  0.03399179  0.44524962    -0.80400
O3          O  0.43192497  0.03173322  0.48455296    -0.80400
O4          O  0.05032014  0.46759651  0.46928724    -0.80400
O5          O  0.46771940  0.03676731  0.44553248    -0.80500
O6          O  0.02360625  0.42489633  0.48045513    -0.80400
O7          O  0.06617008  0.02842981  0.48208951    -0.80400
O8          O  0.43845493  0.46953127  0.48729480    -0.80400
C9          C  0.45039859  0.45803586  0.46057864     1.09300
C10         C  0.05759777  0.03790958  0.45332903     1.09200
C11         C  0.44036439  0.04062015  0.45499619     1.09300
C12         C  0.04581560  0.43811285  0.46509720     1.09200
O13         O  0.03390423  0.45681181  0.03740215    -0.80400
O14         O  0.46862916  0.07150967  0.00845007    -0.80500
O15         O  0.46713944  0.47574368  0.05478160    -0.80400
O16         O  0.03787285  0.02874401  0.04665184    -0.80400
O17         O  0.03103478  0.06677569  0.00993939    -0.80400
O18         O  0.47549446  0.43775674  0.02092454    -0.80400
O19         O  0.07754450  0.48301597  0.02888363    -0.80300
O20         O  0.46302339  0.03739115  0.04922736    -0.80400
Co21       Co  0.00665580  0.46246232  0.49386113     1.51500
Co22       Co  0.49935630  0.04959372  0.97776329     1.51700
Co23       Co  0.45283122  0.50357920  0.51864518     1.51600
Co24       Co  0.04072492  0.99822881  0.00983179     1.51500
O25         O  0.99621010  0.50709117  0.49953885    -1.42300
C26         C  0.06297178  0.46109761  0.04351694     1.09200
C27         C  0.45869794  0.06414254  0.03797197     1.09300
C28         C  0.46454356  0.44748006  0.04852349     1.09300
C29         C  0.04130246  0.05690729  0.03816609     1.09200
C30         C  0.13017868  0.12307362  0.36864609     0.86200
C31         C  0.16508549  0.11931524  0.37334216    -0.54000
C32         C  0.18266731  0.14025044  0.35550019     0.09200
C33         C  0.16401230  0.16271526  0.33412646     0.20100
C34         C  0.12419552  0.15710904  0.37750991    -0.54700
C35         C  0.14187821  0.17766251  0.35921365     0.09300
C36         C  0.12589364  0.12141785  0.32972535    -0.54200
C37         C  0.14374449  0.14202745  0.31195941     0.09800
H38         H  0.17495928  0.10198524  0.38984013     0.14400
H39         H  0.17825982  0.17968922  0.31946269     0.00100
H40         H  0.10738747  0.16426100  0.39628167     0.14700
H41         H  0.11145432  0.10502867  0.31638640     0.14500
C42         C  0.12931306  0.36209391  0.38446491     0.86200
C43         C  0.12364555  0.32672887  0.38621404    -0.54000
C44         C  0.14364384  0.31018119  0.36722308     0.09200
C45         C  0.16807347  0.32989396  0.34871769     0.20100
C46         C  0.16318141  0.36606837  0.39545170    -0.54700
C47         C  0.18346329  0.34908471  0.37684534     0.09300
C48         C  0.12942775  0.36976309  0.34631177    -0.54200
C49         C  0.14981890  0.35316562  0.32735766     0.09800
H50         H  0.10629982  0.31492449  0.40144606     0.14400
H51         H  0.18473389  0.31617764  0.33395909     0.00100
H52         H  0.17039593  0.38069359  0.41634771     0.14700
H53         H  0.11363140  0.38614863  0.33538553     0.14500
C54         C  0.13580185  0.37459126  0.12262418     0.86200
C55         C  0.17032785  0.38055153  0.11516941    -0.54000
C56         C  0.18944819  0.36207575  0.13322574     0.09200
C57         C  0.17264131  0.33869531  0.15638406     0.20100
C58         C  0.13118972  0.33978890  0.11519351    -0.54700
C59         C  0.15031818  0.32123739  0.13302337     0.09300
C60         C  0.13273992  0.37698917  0.16153971    -0.54200
C61         C  0.15201013  0.35822757  0.17945614     0.09800
H62         H  0.17892101  0.39851404  0.09811806     0.14400
H63         H  0.18899209  0.32356704  0.16971796     0.00100
H64         H  0.11492016  0.32991359  0.09745553     0.14700
H65         H  0.11634934  0.39211655  0.17364942     0.14500
C66         C  0.12971294  0.13694046  0.10785800     0.86200
C67         C  0.12751575  0.17240403  0.10335927    -0.54000
C68         C  0.14711714  0.18873084  0.12359890     0.09200
C69         C  0.16743614  0.16877611  0.14601818     0.20100
C70         C  0.16415047  0.13024112  0.10129252    -0.54700
C71         C  0.18388560  0.14713847  0.12125081     0.09300
C72         C  0.12516160  0.13156562  0.14607445    -0.54200
C73         C  0.14482636  0.14806033  0.16599442     0.09800
H74         H  0.11211860  0.18429974  0.08647646     0.14400
H75         H  0.18317115  0.18251881  0.16240698     0.00100
H76         H  0.17210690  0.11413990  0.08225532     0.14700
H77         H  0.10804414  0.11550063  0.15640495     0.14500
C78         C  0.36599041  0.12747080  0.37736192     0.86200
C79         C  0.37383063  0.16148134  0.38551727    -0.54000
C80         C  0.35788442  0.18240992  0.36657094     0.09200
C81         C  0.33552022  0.16729196  0.34113753     0.20100
C82         C  0.33070418  0.12486071  0.38130712    -0.54700
C83         C  0.31493229  0.14563330  0.36243716     0.09300
C84         C  0.37113021  0.12469158  0.33868020    -0.54200
C85         C  0.35513055  0.14546458  0.31977641     0.09800
H86         H  0.39081327  0.16824292  0.40429754     0.14400
H87         H  0.32242268  0.18398929  0.32566291     0.00100
H88         H  0.31845944  0.10746608  0.39605626     0.14700
H89         H  0.38536546  0.10715420  0.32720511     0.14500
C90         C  0.37152276  0.13937387  0.11416866     0.86200
C91         C  0.33739506  0.13205420  0.10673236    -0.54000
C92         C  0.31716342  0.14793619  0.12648265     0.09200
C93         C  0.33300074  0.16944685  0.15246084     0.20100
C94         C  0.37446941  0.17482451  0.11116008    -0.54700
C95         C  0.35476363  0.19058710  0.13160685     0.09300
C96         C  0.37511641  0.13327155  0.15249777    -0.54200
C97         C  0.35495620  0.14880939  0.17263890     0.09800
H98         H  0.32996626  0.11637453  0.08686460     0.14400
H99         H  0.31670355  0.18220887  0.16877946     0.00100
H100        H  0.39107634  0.18694627  0.09531264     0.14700
H101        H  0.39218929  0.11780129  0.16270347     0.14500
C102        C  0.37662341  0.37671679  0.13153510     0.86200
C103        C  0.38010767  0.34184014  0.12605458    -0.54000
C104        C  0.35876974  0.32390840  0.14282620     0.09200
C105        C  0.33628028  0.34253530  0.16454386     0.20100
C106        C  0.34289117  0.38327005  0.12220424    -0.54700
C107        C  0.32185906  0.36549581  0.13972140     0.09300
C108        C  0.37764413  0.38028278  0.17055199    -0.54200
C109        C  0.35693038  0.36197126  0.18782760     0.09800
H110        H  0.39766231  0.33227601  0.10962697     0.14400
H111        H  0.31924247  0.32811740  0.17870591     0.00100
H112        H  0.33628322  0.40062241  0.10377646     0.14700
H113        H  0.39317225  0.39547978  0.18401326     0.14500
C114        C  0.36934286  0.36970154  0.39185481     0.86200
C115        C  0.33488950  0.37052340  0.40155303    -0.54000
C116        C  0.31642087  0.35187396  0.38227477     0.09200
C117        C  0.33422389  0.33301125  0.35588924     0.20100
C118        C  0.37716021  0.33502606  0.39539855    -0.54700
C119        C  0.35885013  0.31589198  0.37618800     0.09300
C120        C  0.37049885  0.37610760  0.35360618    -0.54200
C121        C  0.35243838  0.35687099  0.33469911     0.09800
H122        H  0.32577356  0.38392038  0.42237310     0.14400
H123        H  0.31936295  0.31745619  0.34054180     0.00100
H124        H  0.39547254  0.32635799  0.41126316     0.14700
H125        H  0.38502368  0.39411797  0.34236171     0.14500
C126        C  0.32752482  0.35475171  0.24254305    -0.21500
C127        C  0.35576678  0.35976267  0.22554550    -0.09600
C128        C  0.38288973  0.36199295  0.24488853     0.29300
C129        C  0.38141644  0.36107113  0.28020794    -0.21500
C130        C  0.35309618  0.35731317  0.29713716    -0.09600
C131        C  0.32611841  0.35350955  0.27800645     0.29300
F132        F  0.29829232  0.34965172  0.29345494    -0.20100
H133        H  0.30632485  0.35225165  0.22858767     0.17600
H134        H  0.40265970  0.36275402  0.29441019     0.17600
F135        F  0.41105033  0.36387249  0.22984559    -0.20100
C136        C  0.32894328  0.24131065  0.13966855    -0.21500
C137        C  0.35611829  0.22474284  0.13524898    -0.09600
C138        C  0.38444379  0.24111118  0.13463345     0.29300
C139        C  0.38511848  0.27322730  0.13729116    -0.24200
C140        C  0.35770096  0.28977623  0.14031800    -0.09600
C141        C  0.32948415  0.27342090  0.14119506     0.29300
F142        F  0.30222797  0.28827853  0.14211093    -0.20100
H143        H  0.30693926  0.22967125  0.14147485     0.17600
H144        H  0.40725110  0.28510053  0.13747861     0.17600
F145        F  0.41162064  0.22615217  0.13293584    -0.20100
C146        C  0.38290941  0.14483633  0.26403623    -0.21500
C147        C  0.35505322  0.14561124  0.28214005    -0.09600
C148        C  0.32722153  0.14687260  0.26411787     0.29300
C149        C  0.32741245  0.14761624  0.22861462    -0.21500
C150        C  0.35528028  0.14719757  0.21039159    -0.09600
C151        C  0.38315414  0.14589571  0.22853904     0.29300
F152        F  0.41073579  0.14695183  0.21217966    -0.20100
H153        H  0.40458972  0.14421373  0.27747265     0.17600
H154        H  0.30564883  0.14813322  0.21535052     0.17600
F155        F  0.29975874  0.14648774  0.28073786    -0.20100
C156        C  0.36081469  0.23492947  0.34022770    -0.21500
C157        C  0.36136625  0.21657857  0.36967248    -0.09600
C158        C  0.36343480  0.23126300  0.40146238     0.29300
C159        C  0.36400577  0.26362591  0.40350915    -0.21500
C160        C  0.36220670  0.28183355  0.37402158    -0.09600
C161        C  0.36122661  0.26712548  0.34227876     0.29300
F162        F  0.36074116  0.28387626  0.31309356    -0.20100
H163        H  0.35986497  0.22430120  0.31542099     0.17600
H164        H  0.36445883  0.27445563  0.42822261     0.17600
F165        F  0.36305489  0.21447721  0.43062061    -0.20100
C166        C  0.26705600  0.17407030  0.11906391    -0.21500
C167        C  0.28313714  0.14649467  0.12200245    -0.09600
C168        C  0.26638026  0.11838564  0.12141064     0.29300
C169        C  0.23399531  0.11837708  0.11971095    -0.21500
C170        C  0.21803256  0.14636061  0.11888891    -0.09600
C171        C  0.23501135  0.17420813  0.11799017     0.29300
F172        F  0.22066176  0.20171778  0.11579471    -0.20100
H173        H  0.27935932  0.19574119  0.11707018     0.17600
H174        H  0.22136114  0.09662473  0.12042207     0.17600
F175        F  0.28115409  0.09112438  0.12384720    -0.20100
C176        C  0.16108505  0.27283504  0.10140976    -0.21500
C177        C  0.14913951  0.28731369  0.13028279    -0.09600
C178        C  0.13556013  0.26933027  0.15621932     0.29300
C179        C  0.13532078  0.23715453  0.15402095    -0.21500
C180        C  0.14751473  0.22266932  0.12533958    -0.09600
C181        C  0.16007457  0.24062745  0.09878657     0.29300
F182        F  0.17183028  0.22695666  0.07074429    -0.20100
H183        H  0.17124866  0.28650658  0.08103178     0.17600
H184        H  0.12509916  0.22349467  0.17438856     0.17600
F185        F  0.12155721  0.28289925  0.18300495    -0.20100
C186        C  0.24090235  0.36034028  0.10404879    -0.21500
C187        C  0.22332563  0.36585856  0.13335747    -0.09600
C188        C  0.23832108  0.37335758  0.16374734     0.29300
C189        C  0.27040967  0.37461095  0.16499615    -0.21500
C190        C  0.28810932  0.36799177  0.13619674    -0.09600
C191        C  0.27320806  0.36118952  0.10546556     0.29300
F192        F  0.28982169  0.35383651  0.07745492    -0.20100
H193        H  0.22961718  0.35422948  0.08051552     0.17600
H194        H  0.28150200  0.38056111  0.18861427     0.17600
F195        F  0.22189249  0.37940210  0.19229411    -0.20100
C196        C  0.16040118  0.32951572  0.27059698    -0.21500
C197        C  0.15244064  0.35557829  0.28955475    -0.09600
C198        C  0.14645700  0.38320014  0.27190028     0.29300
C199        C  0.14662246  0.38388437  0.23634546    -0.21500
C200        C  0.15307833  0.35728089  0.21740978    -0.09600
C201        C  0.16069674  0.33017361  0.23520564     0.29300
F202        F  0.16745286  0.30365370  0.21895014    -0.20100
H203        H  0.16570747  0.30796440  0.28289109     0.17600
H204        H  0.14204488  0.40552122  0.22365700     0.17600
F205        F  0.14130117  0.40985448  0.28876777    -0.20100
C206        C  0.26623908  0.32275516  0.38202213    -0.21500
C207        C  0.28227982  0.35095579  0.38515697    -0.09600
C208        C  0.26540939  0.37828624  0.38855736     0.29300
C209        C  0.23320480  0.37736830  0.38733002    -0.21500
C210        C  0.21725303  0.34931603  0.38256021    -0.09600
C211        C  0.23404420  0.32184138  0.38091186     0.29300
F212        F  0.21938480  0.29406013  0.37830464    -0.20100
H213        H  0.27868427  0.30136672  0.38009453     0.17600
H214        H  0.22078747  0.39881670  0.38848014     0.17600
F215        F  0.27998800  0.40613311  0.39082259    -0.20100
C216        C  0.17218045  0.14577841  0.22121809    -0.21500
C217        C  0.14432125  0.14620574  0.20339075    -0.09600
C218        C  0.11629218  0.14509538  0.22148470     0.29300
C219        C  0.11631905  0.14356051  0.25681622    -0.21500
C220        C  0.14416553  0.14337735  0.27460485    -0.09600
C221        C  0.17218064  0.14434934  0.25659898     0.29300
F222        F  0.19948990  0.14290875  0.27308286    -0.20100
H223        H  0.19398583  0.14605783  0.20771699     0.17600
H224        H  0.09454362  0.14310295  0.27038092     0.17600
F225        F  0.08889595  0.14656154  0.20518762    -0.20100
C226        C  0.23183169  0.17016874  0.35995817    -0.21500
C227        C  0.21655111  0.14154229  0.35672449    -0.09600
C228        C  0.23376726  0.11451771  0.35423667     0.29300
C229        C  0.26577366  0.11612585  0.35595493    -0.21500
C230        C  0.28107117  0.14465173  0.36001513    -0.09600
C231        C  0.26393138  0.17178433  0.36159300     0.29300
F232        F  0.27808546  0.19963635  0.36591965    -0.20100
H233        H  0.21885443  0.19123179  0.36194175     0.17600
H234        H  0.27869185  0.09505243  0.35369838     0.17600
F235        F  0.21973523  0.08671297  0.34917270    -0.20100
C236        C  0.13232133  0.22916585  0.33403111    -0.21500
C237        C  0.14022018  0.21144257  0.36243757    -0.09600
C238        C  0.14877467  0.22623052  0.39264412     0.29300
C239        C  0.14977434  0.25849532  0.39413883    -0.21500
C240        C  0.14216361  0.27620271  0.36557880    -0.09600
C241        C  0.13279168  0.26135775  0.33571170     0.29300
F242        F  0.12320805  0.27791678  0.30858568    -0.20100
H243        H  0.12561740  0.21798264  0.31060166     0.17600
H244        H  0.15691385  0.26971803  0.41737786     0.17600
F245        F  0.15730829  0.20949021  0.42012289    -0.20100
C246        C  0.09990249  0.07714322  0.44592674    -0.21500
C247        C  0.07789847  0.05717821  0.43146921    -0.09600
C248        C  0.07253681  0.05893072  0.39647371     0.29300
C249        C  0.08896641  0.08000590  0.37627297    -0.21500
C250        C  0.11127491  0.10017526  0.39035090    -0.09600
C251        C  0.11611571  0.09867720  0.42576438     0.29300
F252        F  0.13634471  0.11834434  0.44098766    -0.20100
H253        H  0.10366651  0.07694664  0.47309018     0.17600
H254        H  0.08312380  0.08036614  0.34980755     0.17600
F255        F  0.05100294  0.04042024  0.38167698    -0.20100
C256        C  0.10319714  0.45029716  0.08732853    -0.21500
C257        C  0.07912502  0.43981445  0.06655932    -0.09600
C258        C  0.07198541  0.40811844  0.06589444     0.29300
C259        C  0.08958168  0.38717323  0.08421876    -0.21500
C260        C  0.11478791  0.39720633  0.10400388    -0.09600
C261        C  0.12034847  0.42937785  0.10649231     0.29300
F262        F  0.14289084  0.44060248  0.12697307    -0.20100
H263        H  0.10879492  0.47471365  0.08862759     0.17600
H264        H  0.08288227  0.36322032  0.08247508     0.17600
F265        F  0.04886878  0.39705871  0.04607654    -0.20100
C266        C  0.41792375  0.07100921  0.08181786    -0.21500
C267        C  0.43770409  0.08439349  0.05725750    -0.09600
C268        C  0.43465502  0.11584279  0.04960183     0.29300
C269        C  0.41315402  0.13363256  0.06717105    -0.21500
C270        C  0.39390403  0.12045290  0.09269203    -0.09600
C271        C  0.39598230  0.08847918  0.09870441     0.29300
F272        F  0.37688030  0.07398196  0.12129618    -0.20100
H273        H  0.41879393  0.04655742  0.08748433     0.17600
H274        H  0.41161101  0.15749452  0.05975937     0.17600
F275        F  0.45233864  0.12947693  0.02510056    -0.20100
C276        C  0.08273483  0.12892381  0.06881004    -0.21500
C277        C  0.10699124  0.11659812  0.08805787    -0.09600
C278        C  0.10799936  0.08420423  0.09195512     0.29300
C279        C  0.08554089  0.06505806  0.07735481    -0.21500
C280        C  0.06168046  0.07754251  0.05806127    -0.09600
C281        C  0.06047046  0.10973427  0.05400759     0.29300
F282        F  0.03764250  0.12282036  0.03573529    -0.20100
H283        H  0.08004872  0.15334556  0.06520561     0.17600
H284        H  0.08743633  0.04029432  0.08028906     0.17600
F285        F  0.13059627  0.07098731  0.11042697    -0.20100
C286        C  0.42221372  0.38723800  0.41307913    -0.21500
C287        C  0.39038193  0.39278531  0.41040050    -0.09600
C288        C  0.37997614  0.42241368  0.41973467     0.29300
C289        C  0.39983972  0.44372224  0.43522505    -0.21500
C290        C  0.43104065  0.43726117  0.43962149    -0.09600
C291        C  0.44231899  0.40912245  0.42748840     0.29300
F292        F  0.47252658  0.40218347  0.43075552    -0.20100
H293        H  0.43177645  0.36598819  0.40373217     0.17600
H294        H  0.39082476  0.46560001  0.44359566     0.17600
F295        F  0.35091835  0.43157480  0.41304669    -0.20100
C296        C  0.43384901  0.07965007  0.40890477    -0.21500
C297        C  0.42036012  0.06045452  0.43399090    -0.09600
C298        C  0.38894428  0.06371288  0.44136345     0.29300
C299        C  0.37146308  0.08530196  0.42370129    -0.21500
C300        C  0.38474211  0.10430842  0.39801723    -0.09600
C301        C  0.41654993  0.10159828  0.39166058     0.29300
F302        F  0.43111789  0.12042170  0.36884422    -0.20100
H303        H  0.45826550  0.07853770  0.40336989     0.17600
H304        H  0.34778783  0.08728538  0.43148355     0.17600
F305        F  0.37509574  0.04645624  0.46610388    -0.20100
C306        C  0.09225288  0.43264557  0.42690756    -0.21500
C307        C  0.06589301  0.41961609  0.44252401    -0.09600
C308        C  0.05946608  0.38801737  0.43753358     0.29300
C309        C  0.07938515  0.36984027  0.41869994    -0.21500
C310        C  0.10674635  0.38220467  0.40439128    -0.09600
C311        C  0.11227611  0.41430172  0.40778307     0.29300
F312        F  0.13724865  0.42795109  0.39280493    -0.20100
H313        H  0.09761956  0.45697965  0.42982027     0.17600
H314        H  0.07237499  0.34614830  0.41526531     0.17600
F315        F  0.03383579  0.37423765  0.45095618    -0.20100
C316        C  0.42069185  0.41733965  0.12513781    -0.21500
C317        C  0.40022913  0.39550669  0.11054939    -0.09600
C318        C  0.40247744  0.39047597  0.07520875     0.29300
C319        C  0.42483776  0.40598012  0.05561621    -0.21500
C320        C  0.44482120  0.42771161  0.07040419    -0.09600
C321        C  0.44252312  0.43331272  0.10533397     0.29300
F322        F  0.46130228  0.45448425  0.12038230    -0.20100
H323        H  0.42001500  0.42307160  0.15164709     0.17600
H324        H  0.42560349  0.40198076  0.02849733     0.17600
F325        F  0.38286530  0.37054491  0.05946609    -0.20100
O326        O  0.47899866  0.46137937  0.95433254    -0.80400
O327        O  0.02987117  0.03399657  0.94525416    -0.80400
O328        O  0.43192839  0.03173027  0.98454903    -0.80400
O329        O  0.05032697  0.46760112  0.96928807    -0.80400
O330        O  0.46772511  0.03676521  0.94553157    -0.80500
O331        O  0.02361641  0.42490010  0.98046143    -0.80400
O332        O  0.06617639  0.02843528  0.98209517    -0.80400
O333        O  0.43846417  0.46952642  0.98729450    -0.80400
C334        C  0.45041015  0.45803105  0.96057972     1.09300
C335        C  0.05760472  0.03791616  0.95333481     1.09200
C336        C  0.44036974  0.04061816  0.95499316     1.09300
C337        C  0.04582422  0.43811673  0.96510125     1.09200
O338        O  0.03389786  0.45680552  0.53739774    -0.80400
O339        O  0.46863150  0.07150984  0.50845088    -0.80500
O340        O  0.46713597  0.47574569  0.55477928    -0.80400
O341        O  0.03786983  0.02874231  0.54664801    -0.80400
O342        O  0.03103501  0.06677344  0.50993420    -0.80400
O343        O  0.47548472  0.43775845  0.52092060    -0.80400
O344        O  0.07753866  0.48301016  0.52888242    -0.80300
O345        O  0.46302486  0.03739145  0.54922837    -0.80400
Co346      Co  0.00666353  0.46246523  0.99386396     1.51500
Co347      Co  0.49935444  0.04959180  0.47776227     1.51700
Co348      Co  0.45283582  0.50357560  0.01864501     1.51600
Co349      Co  0.04071861  0.99822615  0.50982838     1.51500
O350        O  0.99621489  0.50709354  0.99953933    -1.42300
C351        C  0.06296509  0.46109150  0.54351415     1.09200
C352        C  0.45870192  0.06414360  0.53797354     1.09300
C353        C  0.46453626  0.44748248  0.54852063     1.09300
C354        C  0.04130236  0.05690504  0.53816123     1.09200
C355        C  0.13019297  0.12307612  0.86864970     0.86200
C356        C  0.16509995  0.11931893  0.87334609    -0.54000
C357        C  0.18268121  0.14025331  0.85550206     0.09200
C358        C  0.16402568  0.16271609  0.83412604     0.20100
C359        C  0.12420920  0.15711203  0.87751028    -0.54700
C360        C  0.14189109  0.17766489  0.85921213     0.09300
C361        C  0.12590869  0.12141685  0.82972889    -0.54200
C362        C  0.14375852  0.14202575  0.81196064     0.09800
H363        H  0.17497439  0.10198990  0.88984471     0.14400
H364        H  0.17827317  0.17968908  0.81946089     0.00100
H365        H  0.10740109  0.16426479  0.89628165     0.14700
H366        H  0.11147141  0.10502463  0.81639159     0.14500
C367        C  0.12931767  0.36209718  0.88446533     0.86200
C368        C  0.12365223  0.32673165  0.88621375    -0.54000
C369        C  0.14365200  0.31018517  0.86722348     0.09200
C370        C  0.16808113  0.32989992  0.84871934     0.20100
C371        C  0.16318528  0.36607433  0.89545290    -0.54700
C372        C  0.18346875  0.34909190  0.87684770     0.09300
C373        C  0.12943256  0.36976614  0.84631206    -0.54200
C374        C  0.14982554  0.35317029  0.82735844     0.09800
H375        H  0.10630575  0.31492541  0.90144283     0.14400
H376        H  0.18474330  0.31618475  0.83396179     0.00100
H377        H  0.17039805  0.38070038  0.91634896     0.14700
H378        H  0.11363464  0.38615001  0.83538535     0.14500
C379        C  0.13579093  0.37458505  0.62262479     0.86200
C380        C  0.17031670  0.38054863  0.61517161    -0.54000
C381        C  0.18943808  0.36207341  0.63322727     0.09200
C382        C  0.17263264  0.33869101  0.65638404     0.20100
C383        C  0.13118171  0.33978261  0.61519261    -0.54700
C384        C  0.15031134  0.32123206  0.63302204     0.09300
C385        C  0.13272773  0.37698125  0.66154037    -0.54200
C386        C  0.15199979  0.35822124  0.67945647     0.09800
H387        H  0.17890877  0.39851256  0.59812144     0.14400
H388        H  0.18898464  0.32356369  0.66971739     0.00100
H389        H  0.11491258  0.32990617  0.59745482     0.14700
H390        H  0.11633635  0.39210752  0.67365031     0.14500
C391        C  0.12971695  0.13693431  0.60785683     0.86200
C392        C  0.12751959  0.17239782  0.60335795    -0.54000
C393        C  0.14712073  0.18872508  0.62359719     0.09200
C394        C  0.16744004  0.16877070  0.64601663     0.20100
C395        C  0.16415482  0.13023521  0.60129139    -0.54700
C396        C  0.18389010  0.14713327  0.62124932     0.09300
C397        C  0.12516594  0.13155975  0.64607373    -0.54200
C398        C  0.14483113  0.14805454  0.66599356     0.09800
H399        H  0.11212198  0.18429360  0.58647579     0.14400
H400        H  0.18317456  0.18251391  0.66240558     0.00100
H401        H  0.17211127  0.11413412  0.58225413     0.14700
H402        H  0.10804893  0.11549458  0.65640448     0.14500
C403        C  0.36600528  0.12747503  0.87735601     0.86200
C404        C  0.37384157  0.16148585  0.88551471    -0.54000
C405        C  0.35789456  0.18241374  0.86656815     0.09200
C406        C  0.33553380  0.16729539  0.84113205     0.20100
C407        C  0.33071890  0.12486099  0.88129731    -0.54700
C408        C  0.31494651  0.14563377  0.86242845     0.09300
C409        C  0.37114836  0.12469874  0.83867436    -0.54200
C410        C  0.35514776  0.14547136  0.81977091     0.09800
H411        H  0.39082149  0.16824823  0.90429740     0.14400
H412        H  0.32243571  0.18399262  0.82565787     0.00100
H413        H  0.31847470  0.10746400  0.89604342     0.14700
H414        H  0.38538553  0.10716299  0.82719889     0.14500
C415        C  0.37152998  0.13938161  0.61416409     0.86200
C416        C  0.33740235  0.13205761  0.60673135    -0.54000
C417        C  0.31717006  0.14793936  0.62648113     0.09200
C418        C  0.33300750  0.16945401  0.65245588     0.20100
C419        C  0.37447275  0.17483227  0.61115069    -0.54700
C420        C  0.35476687  0.19059469  0.63159772     0.09300
C421        C  0.37512731  0.13328377  0.65249324    -0.54200
C422        C  0.35496708  0.14882099  0.67263419     0.09800
H423        H  0.32997410  0.11637570  0.58686540     0.14400
H424        H  0.31671041  0.18221567  0.66877483     0.00100
H425        H  0.39107766  0.18695410  0.59530045     0.14700
H426        H  0.39220265  0.11781631  0.66269923     0.14500
C427        C  0.37661243  0.37672517  0.63153442     0.86200
C428        C  0.38010046  0.34184899  0.62605530    -0.54000
C429        C  0.35876461  0.32391540  0.64282722     0.09200
C430        C  0.33627312  0.34254031  0.66454489     0.20100
C431        C  0.34287929  0.38327448  0.62220373    -0.54700
C432        C  0.32184917  0.36549862  0.63972198     0.09300
C433        C  0.37763327  0.38029231  0.67055124    -0.54200
C434        C  0.35692135  0.36197922  0.68782770     0.09800
H435        H  0.39765582  0.33228635  0.60962750     0.14400
H436        H  0.31923692  0.32812110  0.67870787     0.00100
H437        H  0.33626928  0.40062548  0.60377525     0.14700
H438        H  0.39316102  0.39549032  0.68401187     0.14500
C439        C  0.36934953  0.36970346  0.89185425     0.86200
C440        C  0.33489693  0.37052873  0.90155560    -0.54000
C441        C  0.31642531  0.35188022  0.88227942     0.09200
C442        C  0.33422478  0.33301582  0.85589216     0.20100
C443        C  0.37716396  0.33502744  0.89539774    -0.54700
C444        C  0.35885098  0.31589494  0.87618923     0.09300
C445        C  0.37050293  0.37610932  0.85360549    -0.54200
C446        C  0.35243926  0.35687422  0.83470001     0.09800
H447        H  0.32578407  0.38392833  0.92237536     0.14400
H448        H  0.31936204  0.31746135  0.84054599     0.00100
H449        H  0.39547610  0.32635725  0.91126129     0.14700
H450        H  0.38502814  0.39411876  0.84235977     0.14500
C451        C  0.32751825  0.35475985  0.74254511    -0.21500
C452        C  0.35575937  0.35977029  0.72554562    -0.09600
C453        C  0.38288358  0.36199886  0.74488655     0.29300
C454        C  0.38141272  0.36107516  0.78020597    -0.21500
C455        C  0.35309367  0.35731725  0.79713766    -0.09600
C456        C  0.32611425  0.35351569  0.77800885     0.29300
F457        F  0.29828912  0.34965805  0.79345954    -0.20100
H458        H  0.30631733  0.35226183  0.72859066     0.17600
H459        H  0.40265715  0.36275667  0.79440633     0.17600
F460        F  0.41104315  0.36387862  0.72984129    -0.20100
C461        C  0.32894419  0.24131664  0.63966240    -0.21500
C462        C  0.35611973  0.22475055  0.63523941    -0.09600
C463        C  0.38444426  0.24112067  0.63462326     0.29300
C464        C  0.38511704  0.27323653  0.63728543    -0.24200
C465        C  0.35769852  0.28978348  0.64031629    -0.09600
C466        C  0.32948285  0.27342646  0.64119213     0.29300
F467        F  0.30222576  0.28828231  0.64211009    -0.20100
H468        H  0.30694051  0.22967603  0.64147004     0.17600
H469        H  0.40724903  0.28511112  0.63747291     0.17600
F470        F  0.41162191  0.22616348  0.63292123    -0.20100
C471        C  0.38292574  0.14484872  0.76402968    -0.21500
C472        C  0.35507001  0.14561948  0.78213470    -0.09600
C473        C  0.32723753  0.14687939  0.76411394     0.29300
C474        C  0.32742683  0.14762552  0.72861099    -0.21500
C475        C  0.35529385  0.14721058  0.71038668    -0.09600
C476        C  0.38316886  0.14591055  0.72853248     0.29300
F477        F  0.41074975  0.14697002  0.71217161    -0.20100
H478        H  0.40460664  0.14422736  0.77746511     0.17600
H479        H  0.30566260  0.14814072  0.71534816     0.17600
F480        F  0.29977528  0.14649038  0.78073495    -0.20100
C481        C  0.36082499  0.23493390  0.84022727    -0.21500
C482        C  0.36137191  0.21658231  0.86967175    -0.09600
C483        C  0.36343024  0.23126569  0.90146283     0.29300
C484        C  0.36399838  0.26362845  0.90351073    -0.21500
C485        C  0.36220596  0.28183669  0.87402303    -0.09600
C486        C  0.36123341  0.26712979  0.84227950     0.29300
F487        F  0.36075252  0.28388176  0.81309498    -0.20100
H488        H  0.35988168  0.22430618  0.81541997     0.17600
H489        H  0.36444484  0.27445769  0.92822476     0.17600
F490        F  0.36304340  0.21447867  0.93062021    -0.20100
C491        C  0.26705932  0.17407013  0.61907059    -0.21500
C492        C  0.28314311  0.14649562  0.62200181    -0.09600
C493        C  0.26638796  0.11838548  0.62140083     0.29300
C494        C  0.23400274  0.11837506  0.61970090    -0.21500
C495        C  0.21803761  0.14635749  0.61888699    -0.09600
C496        C  0.23501484  0.17420626  0.61799595     0.29300
F497        F  0.22066382  0.20171553  0.61580608    -0.20100
H498        H  0.27936093  0.19574278  0.61708179     0.17600
H499        H  0.22137016  0.09662154  0.62040527     0.17600
F500        F  0.28116368  0.09112462  0.62382810    -0.20100
C501        C  0.16107806  0.27283079  0.60140555    -0.21500
C502        C  0.14913499  0.28730830  0.63028065    -0.09600
C503        C  0.13556078  0.26932353  0.65621917     0.29300
C504        C  0.13532444  0.23714783  0.65402091    -0.21500
C505        C  0.14751656  0.22266369  0.62533790    -0.09600
C506        C  0.16007092  0.24062304  0.59878268     0.29300
F507        F  0.17182474  0.22695337  0.57073870    -0.20100
H508        H  0.17123762  0.28650339  0.58102590     0.17600
H509        H  0.12510648  0.22348715  0.67438982     0.17600
F510        F  0.12155956  0.28289108  0.68300681    -0.20100
C511        C  0.24089215  0.36032959  0.60405242    -0.21500
C512        C  0.22331534  0.36585725  0.63335856    -0.09600
C513        C  0.23831063  0.37336438  0.66374626     0.29300
C514        C  0.27039940  0.37461771  0.66499507    -0.21500
C515        C  0.28809908  0.36799121  0.63619773    -0.09600
C516        C  0.27319776  0.36117928  0.60546910     0.29300
F517        F  0.28981135  0.35381754  0.57746137    -0.20100
H518        H  0.22960699  0.35421140  0.58052128     0.17600
H519        H  0.28149197  0.38057340  0.68861175     0.17600
F520        F  0.22188161  0.37941625  0.69229075    -0.20100
C521        C  0.16040988  0.32951933  0.77059845    -0.21500
C522        C  0.15244596  0.35558152  0.78955514    -0.09600
C523        C  0.14645530  0.38320081  0.77189892     0.29300
C524        C  0.14661535  0.38388189  0.73634405    -0.21500
C525        C  0.15307177  0.35727760  0.71740995    -0.09600
C526        C  0.16069751  0.33017336  0.73520712     0.29300
F527        F  0.16745302  0.30365242  0.71895327    -0.20100
H528        H  0.16572483  0.30797090  0.78289316     0.17600
H529        H  0.14203312  0.40551705  0.72365425     0.17600
F530        F  0.14129841  0.40985591  0.78876452    -0.20100
C531        C  0.26624347  0.32276259  0.88203175    -0.21500
C532        C  0.28228453  0.35096311  0.88516519    -0.09600
C533        C  0.26541445  0.37829382  0.88856554     0.29300
C534        C  0.23320977  0.37737624  0.88733644    -0.21500
C535        C  0.21725799  0.34932398  0.88256581    -0.09600
C536        C  0.23404879  0.32184912  0.88092042     0.29300
F537        F  0.21938910  0.29406795  0.87831428    -0.20100
H538        H  0.27868838  0.30137389  0.88010517     0.17600
H539        H  0.22079253  0.39882481  0.88848552     0.17600
F540        F  0.27999350  0.40614040  0.89083170    -0.20100
C541        C  0.17218897  0.14577336  0.72121592    -0.21500
C542        C  0.14432853  0.14619906  0.70339039    -0.09600
C543        C  0.11630085  0.14508755  0.72148680     0.29300
C544        C  0.11633015  0.14355395  0.75681856    -0.21500
C545        C  0.14417777  0.14337320  0.77460542    -0.09600
C546        C  0.17219162  0.14434557  0.75659712     0.29300
F547        F  0.19950207  0.14290687  0.77307892    -0.20100
H548        H  0.19399351  0.14605354  0.70771319     0.17600
H549        H  0.09455565  0.14309588  0.77038479     0.17600
F550        F  0.08890341  0.14655192  0.70519195    -0.20100
C551        C  0.23184624  0.17017052  0.85996092    -0.21500
C552        C  0.21656507  0.14154467  0.85672443    -0.09600
C553        C  0.23378055  0.11452015  0.85423094     0.29300
C554        C  0.26578721  0.11612754  0.85594558    -0.21500
C555        C  0.28108538  0.14465274  0.86000832    -0.09600
C556        C  0.26394613  0.17178533  0.86159297     0.29300
F557        F  0.27810108  0.19963638  0.86592387    -0.20100
H558        H  0.21886931  0.19123336  0.86194873     0.17600
H559        H  0.27870495  0.09505430  0.85368476     0.17600
F560        F  0.21974739  0.08671627  0.84916511    -0.20100
C561        C  0.13234771  0.22916929  0.83402368    -0.21500
C562        C  0.14023252  0.21144549  0.86243475    -0.09600
C563        C  0.14876859  0.22623338  0.89264772     0.29300
C564        C  0.14976759  0.25849827  0.89414307    -0.21500
C565        C  0.14217255  0.27620622  0.86557798    -0.09600
C566        C  0.13281496  0.26136117  0.83570542     0.29300
F567        F  0.12323867  0.27791972  0.80857598    -0.20100
H568        H  0.12565509  0.21798639  0.81059005     0.17600
H569        H  0.15689393  0.26972058  0.91738712     0.17600
F570        F  0.15728467  0.20949299  0.92013335    -0.20100
C571        C  0.09991563  0.07714519  0.94593146    -0.21500
C572        C  0.07790616  0.05718534  0.93147492    -0.09600
C573        C  0.07254114  0.05894275  0.89648017     0.29300
C574        C  0.08897277  0.08001655  0.87627955    -0.21500
C575        C  0.11128785  0.10017935  0.89035602    -0.09600
C576        C  0.11613125  0.09867788  0.92576904     0.29300
F577        F  0.13636479  0.11834056  0.94099194    -0.20100
H578        H  0.10368251  0.07694555  0.97309451     0.17600
H579        H  0.08312555  0.08038221  0.84981547     0.17600
F580        F  0.05100162  0.04043870  0.88168383    -0.20100
C581        C  0.10318218  0.45029111  0.58733489    -0.21500
C582        C  0.07911684  0.43980777  0.56655668    -0.09600
C583        C  0.07198222  0.40811103  0.56588372     0.29300
C584        C  0.08957692  0.38716575  0.58420956    -0.21500
C585        C  0.11477658  0.39719954  0.60400426    -0.09600
C586        C  0.12033194  0.42937139  0.60649994     0.29300
F587        F  0.14286802  0.44059604  0.62698900    -0.20100
H588        H  0.10877581  0.47470802  0.58863994     0.17600
H589        H  0.08288201  0.36321213  0.58245817     0.17600
F590        F  0.04887269  0.39705105  0.54605606    -0.20100
C591        C  0.41793341  0.07101541  0.58182387    -0.21500
C592        C  0.43771179  0.08439707  0.55726017    -0.09600
C593        C  0.43466244  0.11584567  0.54960062     0.29300
C594        C  0.41316143  0.13363705  0.56716769    -0.21500
C595        C  0.39391173  0.12045950  0.59268996    -0.09600
C596        C  0.39599179  0.08848671  0.59870791     0.29300
F597        F  0.37689121  0.07399165  0.62130278    -0.20100
H598        H  0.41880447  0.04656445  0.58749417     0.17600
H599        H  0.41161806  0.15749843  0.55975356     0.17600
F600        F  0.45234534  0.12947734  0.52509707    -0.20100
C601        C  0.08274078  0.12891921  0.56880433    -0.21500
C602        C  0.10699454  0.11659249  0.58805578    -0.09600
C603        C  0.10799970  0.08419857  0.59195412     0.29300
C604        C  0.08554058  0.06505359  0.57735238    -0.21500
C605        C  0.06168240  0.07753923  0.55805610    -0.09600
C606        C  0.06047582  0.10973096  0.55400071     0.29300
F607        F  0.03765045  0.12281847  0.53572570    -0.20100
H608        H  0.08005715  0.15334081  0.56519731     0.17600
H609        H  0.08743358  0.04028975  0.58028805     0.17600
F610        F  0.13059438  0.07098048  0.61042826    -0.20100
C611        C  0.42222143  0.38723171  0.91308629    -0.21500
C612        C  0.39039144  0.39278557  0.91039832    -0.09600
C613        C  0.37998999  0.42241765  0.91972358     0.29300
C614        C  0.39985475  0.44372468  0.93521441    -0.21500
C615        C  0.43105319  0.43725759  0.93962048    -0.09600
C616        C  0.44232820  0.40911429  0.92749650     0.29300
F617        F  0.47253339  0.40216911  0.93077411    -0.20100
H618        H  0.43178187  0.36597847  0.90374618     0.17600
H619        H  0.39084256  0.46560577  0.94357876     0.17600
F620        F  0.35093474  0.43158235  0.91302817    -0.20100
C621        C  0.43385939  0.07964842  0.90890081    -0.21500
C622        C  0.42036821  0.06045507  0.93398767    -0.09600
C623        C  0.38895339  0.06371904  0.94136175     0.29300
C624        C  0.37147522  0.08531026  0.92369943    -0.21500
C625        C  0.38475578  0.10431278  0.89801286    -0.09600
C626        C  0.41656323  0.10159885  0.89165629     0.29300
F627        F  0.43113356  0.12042062  0.86884014    -0.20100
H628        H  0.45827577  0.07853260  0.90336550     0.17600
H629        H  0.34780102  0.08729908  0.93148405     0.17600
F630        F  0.37510315  0.04646644  0.96610440    -0.20100
C631        C  0.09225338  0.43265041  0.92689946    -0.21500
C632        C  0.06590087  0.41961890  0.94252877    -0.09600
C633        C  0.05948015  0.38801719  0.93755134     0.29300
C634        C  0.07939760  0.36983997  0.91871622    -0.21500
C635        C  0.10675091  0.38220732  0.90439229    -0.09600
C636        C  0.11227514  0.41430627  0.90777356     0.29300
F637        F  0.13724123  0.42795707  0.89278388    -0.20100
H638        H  0.09761536  0.45698651  0.92980286     0.17600
H639        H  0.07239236  0.34614524  0.91529449     0.17600
F640        F  0.03385800  0.37423420  0.95098909    -0.20100
C641        C  0.42067654  0.41735201  0.62513446    -0.21500
C642        C  0.40021669  0.39551575  0.61054743    -0.09600
C643        C  0.40246837  0.39048057  0.57520776     0.29300
C644        C  0.42483041  0.40598239  0.55561534    -0.21500
C645        C  0.44481199  0.42771633  0.57040210    -0.09600
C646        C  0.44250962  0.43332265  0.60533068     0.29300
F647        F  0.46128624  0.45449703  0.62037801    -0.20100
H648        H  0.41999595  0.42308812  0.65164248     0.17600
H649        H  0.42559904  0.40197904  0.52849730     0.17600
F650        F  0.38285864  0.37054645  0.55946607    -0.20100
O651        O  0.47898866  0.96138319  0.45432981    -0.80400
O652        O  0.02986540  0.53399087  0.44524935    -0.80400
O653        O  0.43192520  0.53173475  0.48455195    -0.80400
O654        O  0.05031914  0.96759718  0.46928751    -0.80400
O655        O  0.46771918  0.53676818  0.44553080    -0.80500
O656        O  0.02360519  0.92489718  0.48045611    -0.80400
O657        O  0.06617096  0.52842863  0.48209018    -0.80400
O658        O  0.43845599  0.96952990  0.48729452    -0.80400
C659        C  0.45040044  0.95803496  0.46057853     1.09300
C660        C  0.05759931  0.53790813  0.45332942     1.09200
C661        C  0.44036440  0.54062159  0.45499503     1.09300
C662        C  0.04581461  0.93811342  0.46509805     1.09200
O663        O  0.03390455  0.95681155  0.03740657    -0.80400
O664        O  0.46863144  0.57150871  0.00845004    -0.80500
O665        O  0.46713678  0.97574418  0.05478169    -0.80400
O666        O  0.03787232  0.52874443  0.04664911    -0.80400
O667        O  0.03103529  0.56677670  0.00993711    -0.80400
O668        O  0.47549252  0.93775786  0.02092397    -0.80400
O669        O  0.07754506  0.98301499  0.02888702    -0.80300
O670        O  0.46302624  0.53739022  0.04922724    -0.80400
Co671      Co  0.00665489  0.96246322  0.49386203     1.51500
Co672      Co  0.49935838  0.54959249  0.97776315     1.51700
Co673      Co  0.45283098  0.00357760  0.51864602     1.51600
Co674      Co  0.04072446  0.49822970  0.00982870     1.51500
O675        O  0.99620941  0.00709207  0.49953982    -1.42300
C676        C  0.06297215  0.96109708  0.04352108     1.09200
C677        C  0.45870022  0.56414148  0.03797190     1.09300
C678        C  0.46454136  0.94748059  0.04852303     1.09300
C679        C  0.04130232  0.55690777  0.03816387     1.09200
C680        C  0.13017890  0.62307247  0.36864660     0.86200
C681        C  0.16508572  0.61931418  0.37334209    -0.54000
C682        C  0.18266718  0.64024973  0.35550026     0.09200
C683        C  0.16401184  0.66271495  0.33412745     0.20100
C684        C  0.12419557  0.65710774  0.37751136    -0.54700
C685        C  0.14187811  0.67766173  0.35921549     0.09300
C686        C  0.12589311  0.62141765  0.32972595    -0.54200
C687        C  0.14374371  0.64202758  0.31196023     0.09800
H688        H  0.17495972  0.60198403  0.38983956     0.14400
H689        H  0.17825917  0.67968919  0.31946390     0.00100
H690        H  0.10738760  0.66425920  0.39628336     0.14700
H691        H  0.11145320  0.60502945  0.31638674     0.14500
C692        C  0.12931355  0.86209358  0.38446841     0.86200
C693        C  0.12364633  0.82672848  0.38621750    -0.54000
C694        C  0.14364528  0.81018075  0.36722746     0.09200
C695        C  0.16807538  0.82989374  0.34872292     0.20100
C696        C  0.16318156  0.86606866  0.39545629    -0.54700
C697        C  0.18346411  0.84908502  0.37685080     0.09300
C698        C  0.12942940  0.86976248  0.34631515    -0.54200
C699        C  0.14982146  0.85316521  0.32736199     0.09800
H700        H  0.10629982  0.81492387  0.40144832     0.14400
H701        H  0.18473657  0.81617737  0.33396509     0.00100
H702        H  0.17039545  0.88069467  0.41635177     0.14700
H703        H  0.11363335  0.88614797  0.33538803     0.14500
C704        C  0.13580054  0.87458991  0.12262938     0.86200
C705        C  0.17032643  0.88054973  0.11517356    -0.54000
C706        C  0.18944700  0.86207362  0.13322911     0.09200
C707        C  0.17264054  0.83869350  0.15638811     0.20100
C708        C  0.13118783  0.83978755  0.11519893    -0.54700
C709        C  0.15031657  0.82123582  0.13302815     0.09300
C710        C  0.13273972  0.87698792  0.16154501    -0.54200
C711        C  0.15201025  0.85822617  0.17946079     0.09800
H712        H  0.17891939  0.89851215  0.09812183     0.14400
H713        H  0.18899148  0.82356514  0.16972163     0.00100
H714        H  0.11491784  0.82991238  0.09746121     0.14700
H715        H  0.11634979  0.89211566  0.17365532     0.14500
C716        C  0.12971204  0.63693921  0.10785855     0.86200
C717        C  0.12751558  0.67240285  0.10335972    -0.54000
C718        C  0.14711710  0.68872933  0.12359945     0.09200
C719        C  0.16743552  0.66877418  0.14601896     0.20100
C720        C  0.16414939  0.63023901  0.10129358    -0.54700
C721        C  0.18388468  0.64713592  0.12125198     0.09300
C722        C  0.12516018  0.63156459  0.14607499    -0.54200
C723        C  0.14482507  0.64805898  0.16599514     0.09800
H724        H  0.11211834  0.68429893  0.08647719     0.14400
H725        H  0.18317076  0.68251672  0.16240768     0.00100
H726        H  0.17210564  0.61413748  0.08225652     0.14700
H727        H  0.10804243  0.61549975  0.15640527     0.14500
C728        C  0.36599055  0.62747267  0.37736115     0.86200
C729        C  0.37382969  0.66148339  0.38551677    -0.54000
C730        C  0.35788309  0.68241157  0.36657031     0.09200
C731        C  0.33551956  0.66729303  0.34113658     0.20100
C732        C  0.33070432  0.62486146  0.38130584    -0.54700
C733        C  0.31493206  0.64563372  0.36243587     0.09300
C734        C  0.37113081  0.62469374  0.33867950    -0.54200
C735        C  0.35513071  0.64546625  0.31977547     0.09800
H736        H  0.39081193  0.66824536  0.40429721     0.14400
H737        H  0.32242163  0.68399006  0.32566203     0.00100
H738        H  0.31845994  0.60746645  0.39605458     0.14700
H739        H  0.38536669  0.60715662  0.32720453     0.14500
C740        C  0.37152167  0.63937030  0.11416708     0.86200
C741        C  0.33739393  0.63204937  0.10673227    -0.54000
C742        C  0.31716247  0.64793203  0.12648213     0.09200
C743        C  0.33299997  0.66944431  0.15245861     0.20100
C744        C  0.37446741  0.67482085  0.11115645    -0.54700
C745        C  0.35476190  0.69058401  0.13160282     0.09300
C746        C  0.37511636  0.63326989  0.15249650    -0.54200
C747        C  0.35495626  0.64880821  0.17263737     0.09800
H748        H  0.32996494  0.61636855  0.08686558     0.14400
H749        H  0.31670289  0.68220691  0.16877671     0.00100
H750        H  0.39107397  0.68694223  0.09530810     0.14700
H751        H  0.39218971  0.61780033  0.16270250     0.14500
C752        C  0.37662225  0.87671424  0.13153310     0.86200
C753        C  0.38010651  0.84183773  0.12605131    -0.54000
C754        C  0.35876883  0.82390547  0.14282283     0.09200
C755        C  0.33627973  0.84253176  0.16454166     0.20100
C756        C  0.34288970  0.88326758  0.12220320    -0.54700
C757        C  0.32185800  0.86549268  0.13972025     0.09300
C758        C  0.37764355  0.88027925  0.17054997    -0.54200
C759        C  0.35693005  0.86196744  0.18782537     0.09800
H760        H  0.39766073  0.83227417  0.10962296     0.14400
H761        H  0.31924212  0.82811362  0.17870392     0.00100
H762        H  0.33628125  0.90062030  0.10377602     0.14700
H763        H  0.39317143  0.89547626  0.18401162     0.14500
C764        C  0.36934408  0.86970346  0.39185162     0.86200
C765        C  0.33489093  0.87052677  0.40155059    -0.54000
C766        C  0.31642141  0.85187733  0.38227341     0.09200
C767        C  0.33422315  0.83301359  0.35588782     0.20100
C768        C  0.37716032  0.83502774  0.39539601    -0.54700
C769        C  0.35884924  0.81589389  0.37618630     0.09300
C770        C  0.37049961  0.87610868  0.35360281    -0.54200
C771        C  0.35243804  0.85687226  0.33469667     0.09800
H772        H  0.32577576  0.88392472  0.42237030     0.14400
H773        H  0.31936120  0.81745876  0.34054118     0.00100
H774        H  0.39547259  0.82635928  0.41126037     0.14700
H775        H  0.38502507  0.89411811  0.34235753     0.14500
C776        C  0.32752394  0.85475135  0.24254073    -0.21500
C777        C  0.35576629  0.85975948  0.22554312    -0.09600
C778        C  0.38288943  0.86198846  0.24488590     0.29300
C779        C  0.38141617  0.86106808  0.28020532    -0.21500
C780        C  0.35309569  0.85731295  0.29713472    -0.09600
C781        C  0.32611756  0.85351060  0.27800426     0.29300
F782        F  0.29829130  0.84965552  0.29345310    -0.20100
H783        H  0.30632391  0.85225274  0.22858518     0.17600
H784        H  0.40265955  0.86275000  0.29440749     0.17600
F785        F  0.41105002  0.86386570  0.22984262    -0.20100
C786        C  0.32894173  0.74130793  0.13966361    -0.21500
C787        C  0.35611660  0.72473992  0.13524362    -0.09600
C788        C  0.38444212  0.74110818  0.13462702     0.29300
C789        C  0.38511711  0.77322431  0.13728491    -0.24200
C790        C  0.35769975  0.78977336  0.14031315    -0.09600
C791        C  0.32948287  0.77341818  0.14119046     0.29300
F792        F  0.30222680  0.78827598  0.14210716    -0.20100
H793        H  0.30693766  0.72966871  0.14147042     0.17600
H794        H  0.40724971  0.78509734  0.13747170     0.17600
F795        F  0.41161888  0.72614911  0.13292830    -0.20100
C796        C  0.38290948  0.64483542  0.26403507    -0.21500
C797        C  0.35505342  0.64561274  0.28213898    -0.09600
C798        C  0.32722188  0.64687587  0.26411671     0.29300
C799        C  0.32741281  0.64761866  0.22861344    -0.21500
C800        C  0.35528052  0.64719761  0.21039027    -0.09600
C801        C  0.38315428  0.64589417  0.22853780     0.29300
F802        F  0.41073599  0.64694785  0.21217848    -0.20100
H803        H  0.40458977  0.64421136  0.27747147     0.17600
H804        H  0.30564918  0.64813660  0.21534949     0.17600
F805        F  0.29975903  0.64649314  0.28073658    -0.20100
C806        C  0.36081182  0.73493103  0.34022681    -0.21500
C807        C  0.36136428  0.71658033  0.36967169    -0.09600
C808        C  0.36343364  0.73126505  0.40146142     0.29300
C809        C  0.36400472  0.76362796  0.40350784    -0.21500
C810        C  0.36220497  0.78183538  0.37402020    -0.09600
C811        C  0.36122387  0.76712703  0.34227757     0.29300
F812        F  0.36073778  0.78387754  0.31309223    -0.20100
H813        H  0.35986157  0.72430265  0.31542022     0.17600
H814        H  0.36445857  0.77445796  0.42822127     0.17600
F815        F  0.36305452  0.71447957  0.43061985    -0.20100
C816        C  0.26705535  0.67406619  0.11906249    -0.21500
C817        C  0.28313615  0.64649053  0.12200259    -0.09600
C818        C  0.26637883  0.61838167  0.12141329     0.29300
C819        C  0.23399386  0.61837352  0.11971401    -0.21500
C820        C  0.21803157  0.64635730  0.11889019    -0.09600
C821        C  0.23501075  0.67420451  0.11798946     0.29300
F822        F  0.22066151  0.70171424  0.11579268    -0.20100
H823        H  0.27935908  0.69573692  0.11706698     0.17600
H824        H  0.22135934  0.59662143  0.12042675     0.17600
F825        F  0.28115225  0.59112032  0.12385176    -0.20100
C826        C  0.16108564  0.77283432  0.10141389    -0.21500
C827        C  0.14913836  0.78731216  0.13028658    -0.09600
C828        C  0.13555802  0.76932795  0.15622184     0.29300
C829        C  0.13531885  0.73715224  0.15402230    -0.21500
C830        C  0.14751439  0.72266784  0.12534116    -0.09600
C831        C  0.16007566  0.74062678  0.09878960     0.29300
F832        F  0.17183320  0.72695684  0.07074771    -0.20100
H833        H  0.17125023  0.78650655  0.08103698     0.17600
H834        H  0.12509638  0.72349181  0.17438882     0.17600
F835        F  0.12155428  0.78289615  0.18300750    -0.20100
C836        C  0.24090033  0.86032974  0.10405189    -0.21500
C837        C  0.22332447  0.86585565  0.13335927    -0.09600
C838        C  0.23832073  0.87336095  0.16374679     0.29300
C839        C  0.27040950  0.87461390  0.16499455    -0.21500
C840        C  0.28810822  0.86798823  0.13619627    -0.09600
C841        C  0.27320606  0.86117860  0.10546760     0.29300
F842        F  0.28981885  0.85381823  0.07745881    -0.20100
H843        H  0.22961442  0.85421349  0.08052071     0.17600
H844        H  0.28150265  0.88056851  0.18861081     0.17600
F845        F  0.22189276  0.87941169  0.19229232    -0.20100
C846        C  0.16040481  0.82951540  0.27060147    -0.21500
C847        C  0.15244458  0.85557809  0.28955922    -0.09600
C848        C  0.14646155  0.88320007  0.27190477     0.29300
C849        C  0.14662607  0.88388406  0.23634991    -0.21500
C850        C  0.15308002  0.85728001  0.21741434    -0.09600
C851        C  0.16069829  0.83017271  0.23521009     0.29300
F852        F  0.16745154  0.80365209  0.21895441    -0.20100
H853        H  0.16571201  0.80796443  0.28289559     0.17600
H854        H  0.14204893  0.90552085  0.22366137     0.17600
F855        F  0.14130713  0.90985471  0.28877230    -0.20100
C856        C  0.26624018  0.82275773  0.38202847    -0.21500
C857        C  0.28228060  0.85095906  0.38515775    -0.09600
C858        C  0.26540999  0.87828968  0.38855506     0.29300
C859        C  0.23320529  0.87737105  0.38732983    -0.21500
C860        C  0.21725379  0.84931782  0.38256550    -0.09600
C861        C  0.23404525  0.82184325  0.38092064     0.29300
F862        F  0.21938592  0.79406153  0.37831852    -0.20100
H863        H  0.27868573  0.80136927  0.38010316     0.17600
H864        H  0.22078759  0.89881937  0.38847705     0.17600
F865        F  0.27998849  0.90613700  0.39081503    -0.20100
C866        C  0.17217915  0.64577890  0.22121887    -0.21500
C867        C  0.14431990  0.64620445  0.20339151    -0.09600
C868        C  0.11629088  0.64509285  0.22148555     0.29300
C869        C  0.11631791  0.64355870  0.25681709    -0.21500
C870        C  0.14416447  0.64337753  0.27460568    -0.09600
C871        C  0.17217948  0.64435060  0.25659974     0.29300
F872        F  0.19948888  0.64291163  0.27308356    -0.20100
H873        H  0.19398455  0.64605915  0.20771783     0.17600
H874        H  0.09454249  0.64310011  0.27038180     0.17600
F875        F  0.08889446  0.64655710  0.20518860    -0.20100
C876        C  0.23183128  0.67016821  0.35995822    -0.21500
C877        C  0.21655096  0.64154166  0.35672413    -0.09600
C878        C  0.23376730  0.61451727  0.35423554     0.29300
C879        C  0.26577375  0.61612564  0.35595355    -0.21500
C880        C  0.28107096  0.64465167  0.36001410    -0.09600
C881        C  0.26393095  0.67178402  0.36159273     0.29300
F882        F  0.27808480  0.69963607  0.36591990    -0.20100
H883        H  0.21885392  0.69123103  0.36194236     0.17600
H884        H  0.27869209  0.59505251  0.35369655     0.17600
F885        F  0.21973549  0.58671246  0.34917118    -0.20100
C886        C  0.13232612  0.72916584  0.33403245    -0.21500
C887        C  0.14022009  0.71144186  0.36244009    -0.09600
C888        C  0.14876941  0.72622925  0.39264881     0.29300
C889        C  0.14976975  0.75849408  0.39414403    -0.21500
C890        C  0.14216447  0.77620215  0.36558260    -0.09600
C891        C  0.13279656  0.76135766  0.33571365     0.29300
F892        F  0.12321612  0.77791706  0.30858655    -0.20100
H893        H  0.12562552  0.71798312  0.31060143     0.17600
H894        H  0.15690552  0.76971630  0.41738480     0.17600
F895        F  0.15729747  0.70948842  0.42012940    -0.20100
C896        C  0.09990207  0.57714364  0.44592784    -0.21500
C897        C  0.07790080  0.55717588  0.43146989    -0.09600
C898        C  0.07254237  0.55892457  0.39647369     0.29300
C899        C  0.08897146  0.57999988  0.37627269    -0.21500
C900        C  0.11127614  0.60017319  0.39035123    -0.09600
C901        C  0.11611501  0.59867752  0.42576515     0.29300
F902        F  0.13634160  0.61834704  0.44098860    -0.20100
H903        H  0.10366392  0.57694934  0.47309161     0.17600
H904        H  0.08313179  0.58035635  0.34980650     0.17600
F905        F  0.05101222  0.54041004  0.38167650    -0.20100
C906        C  0.10319685  0.95029634  0.08733369    -0.21500
C907        C  0.07912499  0.93981393  0.06656394    -0.09600
C908        C  0.07198481  0.90811800  0.06589931     0.29300
C909        C  0.08958047  0.88717256  0.08422402    -0.21500
C910        C  0.11478656  0.89720528  0.10400949    -0.09600
C911        C  0.12034742  0.92937676  0.10649807     0.29300
F912        F  0.14288949  0.94060102  0.12697942    -0.20100
H913        H  0.10879500  0.97471274  0.08863272     0.17600
H914        H  0.08288078  0.86321964  0.08248018     0.17600
F915        F  0.04886829  0.89705855  0.04608109    -0.20100
C916        C  0.41792745  0.57100744  0.08181976    -0.21500
C917        C  0.43770555  0.58439179  0.05725722    -0.09600
C918        C  0.43465292  0.61584013  0.04959876     0.29300
C919        C  0.41315071  0.63362893  0.06716721    -0.21500
C920        C  0.39390325  0.62044951  0.09269060    -0.09600
C921        C  0.39598480  0.58847646  0.09870566     0.29300
F922        F  0.37688482  0.57397902  0.12129930    -0.20100
H923        H  0.41880023  0.54655621  0.08748843     0.17600
H924        H  0.41160461  0.65749015  0.05975282     0.17600
F925        F  0.45233403  0.62947413  0.02509523    -0.20100
C926        C  0.08273549  0.62892335  0.06880834    -0.21500
C927        C  0.10699041  0.61659723  0.08805806    -0.09600
C928        C  0.10799740  0.58420337  0.09195614     0.29300
C929        C  0.08553905  0.56505764  0.07735503    -0.21500
C930        C  0.06167995  0.57754255  0.05805988    -0.09600
C931        C  0.06047118  0.60973426  0.05400528     0.29300
F932        F  0.03764460  0.62282076  0.03573123    -0.20100
H933        H  0.08005059  0.65334507  0.06520265     0.17600
H934        H  0.08743361  0.54029387  0.08028995     0.17600
F935        F  0.13059308  0.57098607  0.11042951    -0.20100
C936        C  0.42221527  0.88723801  0.41307765    -0.21500
C937        C  0.39038394  0.89278696  0.41039668    -0.09600
C938        C  0.37997917  0.92241610  0.41972904     0.29300
C939        C  0.39984279  0.94372392  0.43522059    -0.21500
C940        C  0.43104301  0.93726112  0.43961989    -0.09600
C941        C  0.44232072  0.90912168  0.42748811     0.29300
F942        F  0.47252772  0.90218111  0.43075784    -0.20100
H943        H  0.43177747  0.86598759  0.40373196     0.17600
H944        H  0.39082850  0.96560223  0.44359001     0.17600
F945        F  0.35092222  0.93157844  0.41303860    -0.20100
C946        C  0.43384939  0.57965257  0.40890459    -0.21500
C947        C  0.42036040  0.56045668  0.43399031    -0.09600
C948        C  0.38894460  0.56371529  0.44136305     0.29300
C949        C  0.37146354  0.58530443  0.42370096    -0.21500
C950        C  0.38474248  0.60431078  0.39801683    -0.09600
C951        C  0.41655044  0.60160095  0.39166052     0.29300
F952        F  0.43111846  0.62042481  0.36884467    -0.20100
H953        H  0.45826610  0.57854024  0.40336983     0.17600
H954        H  0.34778824  0.58728807  0.43148345     0.17600
F955        F  0.37509606  0.54645885  0.46610362    -0.20100
C956        C  0.09225095  0.93264599  0.42690701    -0.21500
C957        C  0.06589223  0.91961625  0.44252551    -0.09600
C958        C  0.05946676  0.88801684  0.43753791     0.29300
C959        C  0.07938618  0.86983953  0.41870503    -0.21500
C960        C  0.10674618  0.88220438  0.40439397    -0.09600
C961        C  0.11227449  0.91430191  0.40778322     0.29300
F962        F  0.13724604  0.92795148  0.39280334    -0.20100
H963        H  0.09761655  0.95698055  0.42981758     0.17600
H964        H  0.07237715  0.84614684  0.41527317     0.17600
F965        F  0.03383766  0.87423667  0.45096274    -0.20100
C966        C  0.42069202  0.91733606  0.12513700    -0.21500
C967        C  0.40022783  0.89550485  0.11054780    -0.09600
C968        C  0.40247481  0.89047627  0.07520669     0.29300
C969        C  0.42483473  0.90598124  0.05561435    -0.21500
C970        C  0.44481924  0.92771130  0.07040306    -0.09600
C971        C  0.44252292  0.93330989  0.10533343     0.29300
F972        F  0.46130381  0.95447936  0.12038259    -0.20100
H973        H  0.42001697  0.92306589  0.15164695     0.17600
H974        H  0.42559941  0.90198354  0.02849503     0.17600
F975        F  0.38286186  0.87054639  0.05946350    -0.20100
O976        O  0.47899758  0.96138121  0.95433219    -0.80400
O977        O  0.02987151  0.53399850  0.94525130    -0.80400
O978        O  0.43193045  0.53172961  0.98454917    -0.80400
O979        O  0.05032721  0.96760018  0.96929137    -0.80400
O980        O  0.46772690  0.53676482  0.94553136    -0.80500
O981        O  0.02361794  0.92489866  0.98046622    -0.80400
O982        O  0.06617626  0.52843600  0.98209276    -0.80400
O983        O  0.43846279  0.96952744  0.98729389    -0.80400
C984        C  0.45040906  0.95803256  0.96057900     1.09300
C985        C  0.05760512  0.53791690  0.95333227     1.09200
C986        C  0.44037161  0.54061792  0.95499336     1.09300
C987        C  0.04582497  0.93811567  0.96510507     1.09200
O988        O  0.03389729  0.95680688  0.53739840    -0.80400
O989        O  0.46863164  0.57151123  0.50844883    -0.80500
O990        O  0.46713546  0.97574390  0.55478017    -0.80400
O991        O  0.03786987  0.52874112  0.54664808    -0.80400
O992        O  0.03103565  0.56677218  0.50993406    -0.80400
O993        O  0.47548480  0.93775705  0.52092128    -0.80400
O994        O  0.07753836  0.98301099  0.52888243    -0.80300
O995        O  0.46302678  0.53739316  0.54922668    -0.80400
Co996      Co  0.00666419  0.96246352  0.99386807     1.51500
Co997      Co  0.49935435  0.54959257  0.47776031     1.51700
Co998      Co  0.45283371  0.00357643  0.01864492     1.51600
Co999      Co  0.04071904  0.49822512  0.50982829     1.51500
O1000       O  0.99621494  0.00709176  0.99954280    -1.42300
C1001       C  0.06296458  0.96109258  0.54351454     1.09200
C1002       C  0.45870293  0.56414513  0.53797183     1.09300
C1003       C  0.46453569  0.94748078  0.54852105     1.09300
C1004       C  0.04130259  0.55690384  0.53816130     1.09200
C1005       C  0.13019368  0.62307631  0.86864809     0.86200
C1006       C  0.16510047  0.61931914  0.87334531    -0.54000
C1007       C  0.18268201  0.64025377  0.85550207     0.09200
C1008       C  0.16402691  0.66271698  0.83412615     0.20100
C1009       C  0.12420949  0.65711201  0.87750928    -0.54700
C1010       C  0.14189175  0.67766528  0.85921206     0.09300
C1011       C  0.12590995  0.62141788  0.82972720    -0.54200
C1012       C  0.14376015  0.64202713  0.81195972     0.09800
H1013       H  0.17497455  0.60199002  0.88984387     0.14400
H1014       H  0.17827476  0.67969034  0.81946178     0.00100
H1015       H  0.10740088  0.66426432  0.89628014     0.14700
H1016       H  0.11147217  0.60502661  0.81638929     0.14500
C1017       C  0.12931756  0.86209734  0.88446685     0.86200
C1018       C  0.12365212  0.82673180  0.88621485    -0.54000
C1019       C  0.14365207  0.81018547  0.86722470     0.09200
C1020       C  0.16808144  0.82990037  0.84872110     0.20100
C1021       C  0.16318501  0.86607451  0.89545492    -0.54700
C1022       C  0.18346868  0.84909216  0.87684987     0.09300
C1023       C  0.12943286  0.86976659  0.84631358    -0.54200
C1024       C  0.14982615  0.85317090  0.82736007     0.09800
H1025       H  0.10630549  0.81492535  0.90144327     0.14400
H1026       H  0.18474388  0.81618528  0.83396385     0.00100
H1027       H  0.17039754  0.88070048  0.91635110     0.14700
H1028       H  0.11363503  0.88615033  0.83538689     0.14500
C1029       C  0.13578845  0.87458486  0.62262621     0.86200
C1030       C  0.17031428  0.88054871  0.61517364    -0.54000
C1031       C  0.18943557  0.86207321  0.63322910     0.09200
C1032       C  0.17262994  0.83869031  0.65638510     0.20100
C1033       C  0.13117944  0.83978253  0.61519325    -0.54700
C1034       C  0.15030892  0.82123170  0.63302245     0.09300
C1035       C  0.13272491  0.87698038  0.66154188    -0.54200
C1036       C  0.15199701  0.85822024  0.67945782     0.09800
H1037       H  0.17890640  0.89851315  0.59812411     0.14400
H1038       H  0.18898190  0.82356269  0.66971802     0.00100
H1039       H  0.11491054  0.82990626  0.59745513     0.14700
H1040       H  0.11633368  0.89210668  0.67365196     0.14500
C1041       C  0.12971742  0.63693360  0.60785600     0.86200
C1042       C  0.12752039  0.67239704  0.60335585    -0.54000
C1043       C  0.14712182  0.68872474  0.62359423     0.09200
C1044       C  0.16744115  0.66877087  0.64601424     0.20100
C1045       C  0.16415511  0.63023379  0.60129069    -0.54700
C1046       C  0.18389069  0.64713235  0.62124768     0.09300
C1047       C  0.12516663  0.63156040  0.64607320    -0.54200
C1048       C  0.14483215  0.64805563  0.66599226     0.09800
H1049       H  0.11212207  0.68429262  0.58647420     0.14400
H1050       H  0.18317597  0.68251447  0.66240229     0.00100
H1051       H  0.17211122  0.61413170  0.58225414     0.14700
H1052       H  0.10804954  0.61549565  0.65640464     0.14500
C1053       C  0.36600623  0.62747542  0.87735768     0.86200
C1054       C  0.37384196  0.66148633  0.88551658    -0.54000
C1055       C  0.35789452  0.68241404  0.86657027     0.09200
C1056       C  0.33553387  0.66729547  0.84113424     0.20100
C1057       C  0.33071988  0.62486067  0.88129912    -0.54700
C1058       C  0.31494707  0.64563340  0.86243069     0.09300
C1059       C  0.37114911  0.62469949  0.83867593    -0.54200
C1060       C  0.35514806  0.64547193  0.81977266     0.09800
H1061       H  0.39082199  0.66824891  0.90429918     0.14400
H1062       H  0.32243536  0.68399265  0.82566045     0.00100
H1063       H  0.31847604  0.60746312  0.89604500     0.14700
H1064       H  0.38538652  0.60716403  0.82720024     0.14500
C1065       C  0.37153005  0.63938001  0.61416502     0.86200
C1066       C  0.33740261  0.63205479  0.60673314    -0.54000
C1067       C  0.31717020  0.64793676  0.62648252     0.09200
C1068       C  0.33300737  0.66945252  0.65245634     0.20100
C1069       C  0.37447186  0.67483058  0.61115031    -0.54700
C1070       C  0.35476587  0.69059317  0.63159707     0.09300
C1071       C  0.37512819  0.63328345  0.65249442    -0.54200
C1072       C  0.35496769  0.64882068  0.67263522     0.09800
H1073       H  0.32997452  0.61637231  0.58686763     0.14400
H1074       H  0.31671001  0.68221424  0.66877497     0.00100
H1075       H  0.39107632  0.68695210  0.59529942     0.14700
H1076       H  0.39220396  0.61781684  0.66270055     0.14500
C1077       C  0.37661020  0.87672441  0.63153384     0.86200
C1078       C  0.38009727  0.84184842  0.62605258    -0.54000
C1079       C  0.35876191  0.82391437  0.64282478     0.09200
C1080       C  0.33627158  0.84253880  0.66454444     0.20100
C1081       C  0.34287680  0.88327471  0.62220503    -0.54700
C1082       C  0.32184701  0.86549834  0.63972325     0.09300
C1083       C  0.37763224  0.88029010  0.67055075    -0.54200
C1084       C  0.35692091  0.86197655  0.68782736     0.09800
H1085       H  0.39765179  0.83228635  0.60962323     0.14400
H1086       H  0.31923573  0.82811926  0.67870736     0.00100
H1087       H  0.33626640  0.90062649  0.60377770     0.14700
H1088       H  0.39315940  0.89548871  0.68401138     0.14500
C1089       C  0.36934909  0.86970425  0.89185408     0.86200
C1090       C  0.33489657  0.87052887  0.90155577    -0.54000
C1091       C  0.31642509  0.85188015  0.88227987     0.09200
C1092       C  0.33422465  0.83301573  0.85589272     0.20100
C1093       C  0.37716423  0.83502843  0.89539785    -0.54700
C1094       C  0.35885123  0.81589542  0.87618984     0.09300
C1095       C  0.37050217  0.87610975  0.85360527    -0.54200
C1096       C  0.35243882  0.85687411  0.83470009     0.09800
H1097       H  0.32578348  0.88392761  0.92237609     0.14400
H1098       H  0.31936197  0.81746079  0.84054711     0.00100
H1099       H  0.39547696  0.82635898  0.91126100     0.14700
H1100       H  0.38502709  0.89411930  0.84235933     0.14500
C1101       C  0.32751867  0.85475492  0.74254512    -0.21500
C1102       C  0.35575935  0.85976767  0.72554545    -0.09600
C1103       C  0.38288332  0.86199944  0.74488653     0.29300
C1104       C  0.38141239  0.86107658  0.78020603    -0.21500
C1105       C  0.35309352  0.85731647  0.79713769    -0.09600
C1106       C  0.32611460  0.85351186  0.77800883     0.29300
F1107       F  0.29828963  0.84965239  0.79345933    -0.20100
H1108       H  0.30631793  0.85225431  0.72859101     0.17600
H1109       H  0.40265654  0.86276047  0.79440631     0.17600
F1110       F  0.41104292  0.86388167  0.72984158    -0.20100
C1111       C  0.32894242  0.74131471  0.63966289    -0.21500
C1112       C  0.35611806  0.72474921  0.63523743    -0.09600
C1113       C  0.38444213  0.74112004  0.63461802     0.29300
C1114       C  0.38511449  0.77323593  0.63727960    -0.24200
C1115       C  0.35769587  0.78978234  0.64031327    -0.09600
C1116       C  0.32948058  0.77342463  0.64119228     0.29300
F1117       F  0.30222318  0.78827976  0.64211310    -0.20100
H1118       H  0.30693913  0.72967361  0.64147287     0.17600
H1119       H  0.40724616  0.78511075  0.63746484     0.17600
F1120       F  0.41162013  0.72616365  0.63291390    -0.20100
C1121       C  0.38292605  0.64484797  0.76403120    -0.21500
C1122       C  0.35507040  0.64562034  0.78213629    -0.09600
C1123       C  0.32723806  0.64688173  0.76411534     0.29300
C1124       C  0.32742751  0.64762747  0.72861233    -0.21500
C1125       C  0.35529450  0.64721089  0.71038794    -0.09600
C1126       C  0.38316938  0.64590958  0.72853395     0.29300
F1127       F  0.41075038  0.64696760  0.71217324    -0.20100
H1128       H  0.40460700  0.64422550  0.77746672     0.17600
H1129       H  0.30566334  0.64814347  0.71534955     0.17600
F1130       F  0.29977570  0.64649418  0.78073617    -0.20100
C1131       C  0.36082478  0.73493398  0.84022884    -0.21500
C1132       C  0.36137176  0.71658267  0.86967359    -0.09600
C1133       C  0.36343024  0.73126631  0.90146444     0.29300
C1134       C  0.36399865  0.76362916  0.90351203    -0.21500
C1135       C  0.36220632  0.78183713  0.87402405    -0.09600
C1136       C  0.36123344  0.76712993  0.84228076     0.29300
F1137       F  0.36075234  0.78388161  0.81309601    -0.20100
H1138       H  0.35988130  0.72430612  0.81542187     0.17600
H1139       H  0.36444521  0.77445856  0.92822575     0.17600
F1140       F  0.36304324  0.71447952  0.93062200    -0.20100
C1141       C  0.26706030  0.67406794  0.61906783    -0.21500
C1142       C  0.28314342  0.64649323  0.62200241    -0.09600
C1143       C  0.26638793  0.61838331  0.62140343     0.29300
C1144       C  0.23400277  0.61837324  0.61970260    -0.21500
C1145       C  0.21803815  0.64635590  0.61888548    -0.09600
C1146       C  0.23501577  0.67420435  0.61799199     0.29300
F1147       F  0.22066505  0.70171362  0.61579897    -0.20100
H1148       H  0.27936235  0.69574004  0.61707751     0.17600
H1149       H  0.22136985  0.59661999  0.62040881     0.17600
F1150       F  0.28116320  0.59112239  0.62383344    -0.20100
C1151       C  0.16107355  0.77283149  0.60140272    -0.21500
C1152       C  0.14913303  0.78730792  0.63027984    -0.09600
C1153       C  0.13556198  0.76932206  0.65621938     0.29300
C1154       C  0.13532669  0.73714645  0.65402026    -0.21500
C1155       C  0.14751649  0.72266334  0.62533545    -0.09600
C1156       C  0.16006733  0.74062373  0.59877909     0.29300
F1157       F  0.17181888  0.72695512  0.57073333    -0.20100
H1158       H  0.17123053  0.78650486  0.58102233     0.17600
H1159       H  0.12511119  0.72348493  0.67439011     0.17600
F1160       F  0.12156248  0.78288846  0.68300876    -0.20100
C1161       C  0.24088965  0.86033521  0.60405331    -0.21500
C1162       C  0.22331291  0.86585707  0.63336097    -0.09600
C1163       C  0.23830837  0.87335854  0.66375023     0.29300
C1164       C  0.27039713  0.87461207  0.66499893    -0.21500
C1165       C  0.28809675  0.86799103  0.63619993    -0.09600
C1166       C  0.27319529  0.86118483  0.60546992     0.29300
F1167       F  0.28980879  0.85382869  0.57746025    -0.20100
H1168       H  0.22960447  0.85422152  0.58052089     0.17600
H1169       H  0.28148965  0.88056393  0.68861660     0.17600
F1170       F  0.22187961  0.87940506  0.69229635    -0.20100
C1171       C  0.16041133  0.82952019  0.77060006    -0.21500
C1172       C  0.15244665  0.85558214  0.78955669    -0.09600
C1173       C  0.14645476  0.88320104  0.77190025     0.29300
C1174       C  0.14661351  0.88388159  0.73634532    -0.21500
C1175       C  0.15306997  0.85727719  0.71741137    -0.09600
C1176       C  0.16069754  0.83017362  0.73520876     0.29300
F1177       F  0.16745354  0.80365267  0.71895527    -0.20100
H1178       H  0.16572798  0.80797220  0.78289478     0.17600
H1179       H  0.14203023  0.90551644  0.72365537     0.17600
F1180       F  0.14129775  0.90985623  0.78876567    -0.20100
C1181       C  0.26624318  0.82276248  0.88203374    -0.21500
C1182       C  0.28228435  0.85096305  0.88516614    -0.09600
C1183       C  0.26541443  0.87829387  0.88856640     0.29300
C1184       C  0.23320972  0.87737641  0.88733812    -0.21500
C1185       C  0.21725782  0.84932412  0.88256831    -0.09600
C1186       C  0.23404844  0.82184918  0.88092323     0.29300
F1187       F  0.21938847  0.79406806  0.87831806    -0.20100
H1188       H  0.27868794  0.80137379  0.88010735     0.17600
H1189       H  0.22079261  0.89882498  0.88848699     0.17600
F1190       F  0.27999357  0.90614048  0.89083168    -0.20100
C1191       C  0.17219034  0.64577766  0.72121481    -0.21500
C1192       C  0.14432985  0.64620140  0.70338927    -0.09600
C1193       C  0.11630225  0.64508861  0.72148588     0.29300
C1194       C  0.11633176  0.64355507  0.75681761    -0.21500
C1195       C  0.14417940  0.64337576  0.77460448    -0.09600
C1196       C  0.17219321  0.64435008  0.75659603     0.29300
F1197       F  0.19950384  0.64291318  0.77307767    -0.20100
H1198       H  0.19399499  0.64605887  0.70771201     0.17600
H1199       H  0.09455720  0.64309568  0.77038389     0.17600
F1200       F  0.08890461  0.64655138  0.70519124    -0.20100
C1201       C  0.23184699  0.67017039  0.85996390    -0.21500
C1202       C  0.21656577  0.64154482  0.85672546    -0.09600
C1203       C  0.23378112  0.61452022  0.85423141     0.29300
C1204       C  0.26578776  0.61612732  0.85594687    -0.21500
C1205       C  0.28108595  0.64465232  0.86001101    -0.09600
C1206       C  0.26394682  0.67178491  0.86159684     0.29300
F1207       F  0.27810192  0.69963561  0.86592965    -0.20100
H1208       H  0.21887007  0.69123324  0.86195247     0.17600
H1209       H  0.27870545  0.59505417  0.85368533     0.17600
F1210       F  0.21974787  0.58671660  0.84916408    -0.20100
C1211       C  0.13235097  0.72916989  0.83402305    -0.21500
C1212       C  0.14023256  0.71144582  0.86243502    -0.09600
C1213       C  0.14876459  0.72623347  0.89264955     0.29300
C1214       C  0.14976368  0.75849833  0.89414513    -0.21500
C1215       C  0.14217238  0.77620653  0.86557897    -0.09600
C1216       C  0.13281784  0.76136169  0.83570514     0.29300
F1217       F  0.12324374  0.77792036  0.80857486    -0.20100
H1218       H  0.12566093  0.71798719  0.81058826     0.17600
H1219       H  0.15688727  0.76972049  0.91739041     0.17600
F1220       F  0.15727685  0.70949289  0.92013653    -0.20100
C1221       C  0.09991463  0.57714699  0.94592981    -0.21500
C1222       C  0.07790738  0.55718510  0.93147265    -0.09600
C1223       C  0.07254499  0.55893967  0.89647733     0.29300
C1224       C  0.08897667  0.58001337  0.87627661    -0.21500
C1225       C  0.11128881  0.60017901  0.89035387    -0.09600
C1226       C  0.11613025  0.59867952  0.92576728     0.29300
F1227       F  0.13636182  0.61834407  0.94099048    -0.20100
H1228       H  0.10367953  0.57694911  0.97309307     0.17600
H1229       H  0.08313211  0.58037624  0.84981181     0.17600
F1230       F  0.05100806  0.54043288  0.88168055    -0.20100
C1231       C  0.10317989  0.95029160  0.58733743    -0.21500
C1232       C  0.07911606  0.93980852  0.56655699    -0.09600
C1233       C  0.07198224  0.90811166  0.56588213     0.29300
C1234       C  0.08957625  0.88716607  0.58420837    -0.21500
C1235       C  0.11477439  0.89719966  0.60400556    -0.09600
C1236       C  0.12032892  0.92937155  0.60650295     0.29300
F1237       F  0.14286344  0.94059589  0.62699428    -0.20100
H1238       H  0.10877281  0.97470867  0.58864399     0.17600
H1239       H  0.08288207  0.86321252  0.58245514     0.17600
F1240       F  0.04887417  0.89705190  0.54605227    -0.20100
C1241       C  0.41793807  0.57101629  0.58182639    -0.21500
C1242       C  0.43771266  0.58439803  0.55725909    -0.09600
C1243       C  0.43465883  0.61584556  0.54959655     0.29300
C1244       C  0.41315751  0.63363595  0.56716441    -0.21500
C1245       C  0.39391201  0.62045843  0.59269054    -0.09600
C1246       C  0.39599597  0.58848640  0.59871109     0.29300
F1247       F  0.37689872  0.57399084  0.62130891    -0.20100
H1248       H  0.41881233  0.54656589  0.58749910     0.17600
H1249       H  0.41161006  0.65749625  0.55974751     0.17600
F1250       F  0.45233717  0.62947704  0.52508894    -0.20100
C1251       C  0.08274272  0.62891794  0.56880153    -0.21500
C1252       C  0.10699476  0.61659143  0.58805572    -0.09600
C1253       C  0.10799823  0.58419764  0.59195672     0.29300
C1254       C  0.08553894  0.56505269  0.57735516    -0.21500
C1255       C  0.06168239  0.57753821  0.55805629    -0.09600
C1256       C  0.06047762  0.60972980  0.55399819     0.29300
F1257       F  0.03765412  0.62281739  0.53572037    -0.20100
H1258       H  0.08006072  0.65333946  0.56519162     0.17600
H1259       H  0.08743066  0.54028895  0.58029295     0.17600
F1260       F  0.13059138  0.57097971  0.61043328    -0.20100
C1261       C  0.42222176  0.88723541  0.91308026    -0.21500
C1262       C  0.39039090  0.89278679  0.91039757    -0.09600
C1263       C  0.37998816  0.92241728  0.91972707     0.29300
C1264       C  0.39985283  0.94372445  0.93521758    -0.21500
C1265       C  0.43105225  0.93725942  0.93961917    -0.09600
C1266       C  0.44232842  0.90911837  0.92749016     0.29300
F1267       F  0.47253474  0.90217569  0.93076225    -0.20100
H1268       H  0.43178269  0.86598370  0.90373648     0.17600
H1269       H  0.39083976  0.96560399  0.94358516     0.17600
F1270       F  0.35093188  0.93158103  0.91303550    -0.20100
C1271       C  0.43386082  0.57964848  0.90890109    -0.21500
C1272       C  0.42037002  0.56045540  0.93398846    -0.09600
C1273       C  0.38895550  0.56372026  0.94136380     0.29300
C1274       C  0.37147723  0.58531159  0.92370181    -0.21500
C1275       C  0.38475722  0.60431344  0.89801437    -0.09600
C1276       C  0.41656456  0.60159916  0.89165701     0.29300
F1277       F  0.43113457  0.62042072  0.86884040    -0.20100
H1278       H  0.45827709  0.57853216  0.90336497     0.17600
H1279       H  0.34780319  0.58730120  0.93148737     0.17600
F1280       F  0.37510583  0.54646842  0.96610742    -0.20100
C1281       C  0.09225253  0.93265026  0.92690074    -0.21500
C1282       C  0.06590119  0.91961819  0.94253185    -0.09600
C1283       C  0.05948114  0.88801623  0.93755538     0.29300
C1284       C  0.07939825  0.86983937  0.91871952    -0.21500
C1285       C  0.10675059  0.88220720  0.90439390    -0.09600
C1286       C  0.11227404  0.91430637  0.90777422     0.29300
F1287       F  0.13723906  0.92795763  0.89278289    -0.20100
H1288       H  0.09761385  0.95698659  0.92980327     0.17600
H1289       H  0.07239345  0.84614423  0.91529887     0.17600
F1290       F  0.03386006  0.87423270  0.95099493    -0.20100
C1291       C  0.42067873  0.91734687  0.62513489    -0.21500
C1292       C  0.40021448  0.89551518  0.61054692    -0.09600
C1293       C  0.40246258  0.89048373  0.57520633     0.29300
C1294       C  0.42482486  0.90598511  0.55561367    -0.21500
C1295       C  0.44481056  0.92771466  0.57040153    -0.09600
C1296       C  0.44251201  0.93331712  0.60533104     0.29300
F1297       F  0.46129302  0.95448704  0.62037930    -0.20100
H1298       H  0.42000228  0.92307925  0.65164401     0.17600
H1299       H  0.42559075  0.90198487  0.52849506     0.17600
F1300       F  0.38284935  0.87055345  0.55946407    -0.20100
O1301       O  0.97898826  0.46138332  0.45432930    -0.80400
O1302       O  0.52986478  0.03399194  0.44525003    -0.80400
O1303       O  0.93192456  0.03173462  0.48455368    -0.80400
O1304       O  0.55031980  0.46759785  0.46928628    -0.80400
O1305       O  0.96771854  0.03676763  0.44553261    -0.80500
O1306       O  0.52360554  0.42489763  0.48045340    -0.80400
O1307       O  0.56617090  0.02842965  0.48209008    -0.80400
O1308       O  0.93845573  0.46953013  0.48729425    -0.80400
C1309       C  0.95040010  0.45803515  0.46057826     1.09300
C1310       C  0.55759878  0.03790962  0.45332962     1.09200
C1311       C  0.94036377  0.04062124  0.45499671     1.09300
C1312       C  0.54581514  0.43811420  0.46509597     1.09200
O1313       O  0.53390554  0.45681097  0.03740416    -0.80400
O1314       O  0.96863044  0.07150812  0.00845229    -0.80500
O1315       O  0.96713830  0.47574465  0.05477972    -0.80400
O1316       O  0.53787150  0.02874526  0.04665006    -0.80400
O1317       O  0.53103378  0.06677706  0.00993764    -0.80400
O1318       O  0.97549299  0.43775839  0.02092157    -0.80400
O1319       O  0.57754569  0.48301487  0.02888440    -0.80300
O1320       O  0.96302487  0.03738952  0.04922953    -0.80400
Co1321     Co  0.50665521  0.46246337  0.49385994     1.51500
Co1322     Co  0.99935733  0.04959242  0.97776519     1.51700
Co1323     Co  0.95283123  0.50357807  0.51864517     1.51600
Co1324     Co  0.54072356  0.99822984  0.00983024     1.51500
O1325       O  0.49620976  0.50709217  0.49953802    -1.42300
C1326       C  0.56297318  0.46109673  0.04351834     1.09200
C1327       C  0.95869947  0.06414092  0.03797425     1.09300
C1328       C  0.96454225  0.44748117  0.04852082     1.09300
C1329       C  0.54130144  0.05690852  0.03816433     1.09200
C1330       C  0.63018015  0.12307384  0.36864686     0.86200
C1331       C  0.66508712  0.11931528  0.37334145    -0.54000
C1332       C  0.68266838  0.14025099  0.35549953     0.09200
C1333       C  0.66401274  0.16271637  0.33412719     0.20100
C1334       C  0.62419734  0.15710911  0.37751206    -0.54700
C1335       C  0.64187950  0.17766308  0.35921575     0.09300
C1336       C  0.62589395  0.12141906  0.32972623    -0.54200
C1337       C  0.64374424  0.14202906  0.31196021     0.09800
H1338       H  0.67496144  0.10198481  0.38983846     0.14400
H1339       H  0.67825986  0.17969062  0.31946345     0.00100
H1340       H  0.60738991  0.16426054  0.39628452     0.14700
H1341       H  0.61145469  0.10502980  0.31638727     0.14500
C1342       C  0.62931430  0.36209519  0.38446607     0.86200
C1343       C  0.62364740  0.32673010  0.38621648    -0.54000
C1344       C  0.64364576  0.31018209  0.36722602     0.09200
C1345       C  0.66807501  0.32989478  0.34871977     0.20100
C1346       C  0.66318267  0.36607061  0.39545250    -0.54700
C1347       C  0.68346471  0.34908669  0.37684656     0.09300
C1348       C  0.62942878  0.36976334  0.34631268    -0.54200
C1349       C  0.64982016  0.35316567  0.32735916     0.09800
H1350       H  0.60630172  0.31492583  0.40144890     0.14400
H1351       H  0.68473551  0.31617826  0.33396123     0.00100
H1352       H  0.67039710  0.38069672  0.41634767     0.14700
H1353       H  0.61363255  0.38614865  0.33538578     0.14500
C1354       C  0.63580269  0.37459034  0.12262616     0.86200
C1355       C  0.67032862  0.38054983  0.11517079    -0.54000
C1356       C  0.68944882  0.36207398  0.13322703     0.09200
C1357       C  0.67264195  0.33869416  0.15638609     0.20100
C1358       C  0.63118986  0.33978792  0.11519616    -0.54700
C1359       C  0.65031827  0.32123631  0.13302598     0.09300
C1360       C  0.63274131  0.37698893  0.16154171    -0.54200
C1361       C  0.65201138  0.35822711  0.17945806     0.09800
H1362       H  0.67892195  0.39851196  0.09811877     0.14400
H1363       H  0.68899258  0.32356586  0.16972027     0.00100
H1364       H  0.61492010  0.32991264  0.09745821     0.14700
H1365       H  0.61635137  0.39211677  0.17365148     0.14500
C1366       C  0.62971262  0.13693986  0.10785825     0.86200
C1367       C  0.62751609  0.17240351  0.10335975    -0.54000
C1368       C  0.64711770  0.18872987  0.12359949     0.09200
C1369       C  0.66743627  0.16877468  0.14601876     0.20100
C1370       C  0.66415012  0.13023991  0.10129295    -0.54700
C1371       C  0.68388549  0.14713681  0.12125144     0.09300
C1372       C  0.62516103  0.13156497  0.14607469    -0.54200
C1373       C  0.64482599  0.14805926  0.16599487     0.09800
H1374       H  0.61211900  0.18429962  0.08647706     0.14400
H1375       H  0.68317141  0.18251710  0.16240764     0.00100
H1376       H  0.67210634  0.11413875  0.08225565     0.14700
H1377       H  0.60804313  0.11550018  0.15640506     0.14500
C1378       C  0.86599133  0.12747300  0.37736180     0.86200
C1379       C  0.87383106  0.16148369  0.38551712    -0.54000
C1380       C  0.85788483  0.18241196  0.36657036     0.09200
C1381       C  0.83552112  0.16729366  0.34113674     0.20100
C1382       C  0.83070504  0.12486245  0.38130639    -0.54700
C1383       C  0.81493322  0.14563488  0.36243615     0.09300
C1384       C  0.87113164  0.12469368  0.33868015    -0.54200
C1385       C  0.85513191  0.14546638  0.31977601     0.09800
H1386       H  0.89081325  0.16824559  0.40429769     0.14400
H1387       H  0.82242356  0.18399077  0.32566200     0.00100
H1388       H  0.81846028  0.10746764  0.39605507     0.14700
H1389       H  0.88536714  0.10715632  0.32720536     0.14500
C1390       C  0.87152310  0.13937250  0.11416831     0.86200
C1391       C  0.83739539  0.13205231  0.10673236    -0.54000
C1392       C  0.81716365  0.14793453  0.12648233     0.09200
C1393       C  0.83300099  0.16944602  0.15245982     0.20100
C1394       C  0.87446934  0.17482305  0.11115872    -0.54700
C1395       C  0.85476363  0.19058594  0.13160508     0.09300
C1396       C  0.87511693  0.13327100  0.15249754    -0.54200
C1397       C  0.85495676  0.14880922  0.17263837     0.09800
H1398       H  0.82996667  0.11637213  0.08686499     0.14400
H1399       H  0.81670381  0.18220845  0.16877807     0.00100
H1400       H  0.89107600  0.18694483  0.09531078     0.14700
H1401       H  0.89218986  0.11780098  0.16270345     0.14500
C1402       C  0.87662355  0.37671590  0.13153212     0.86200
C1403       C  0.88010796  0.34183938  0.12605080    -0.54000
C1404       C  0.85877038  0.32390726  0.14282248     0.09200
C1405       C  0.83628105  0.34253362  0.16454090     0.20100
C1406       C  0.84289107  0.38326905  0.12220200    -0.54700
C1407       C  0.82185941  0.36549426  0.13971909     0.09300
C1408       C  0.87764466  0.38028133  0.17054904    -0.54200
C1409       C  0.85693115  0.36196955  0.18782451     0.09800
H1410       H  0.89766240  0.33227559  0.10962257     0.14400
H1411       H  0.81924343  0.32811544  0.17870311     0.00100
H1412       H  0.83628261  0.40062164  0.10377454     0.14700
H1413       H  0.89317244  0.39547848  0.18401060     0.14500
C1414       C  0.86934490  0.36970343  0.39185112     0.86200
C1415       C  0.83489162  0.37052724  0.40154935    -0.54000
C1416       C  0.81642220  0.35187791  0.38227184     0.09200
C1417       C  0.83422427  0.33301398  0.35588653     0.20100
C1418       C  0.87716064  0.33502766  0.39539564    -0.54700
C1419       C  0.85884985  0.31589409  0.37618556     0.09300
C1420       C  0.87050110  0.37610878  0.35360234    -0.54200
C1421       C  0.85243958  0.35687264  0.33469582     0.09800
H1422       H  0.82577652  0.38392610  0.42236848     0.14400
H1423       H  0.81936271  0.31745923  0.34053944     0.00100
H1424       H  0.89547232  0.32635870  0.41126075     0.14700
H1425       H  0.88502673  0.39411825  0.34235743     0.14500
C1426       C  0.82752510  0.35475352  0.24253996    -0.21500
C1427       C  0.85576743  0.35976148  0.22554227    -0.09600
C1428       C  0.88289065  0.36198998  0.24488496     0.29300
C1429       C  0.88141750  0.36106914  0.28020438    -0.21500
C1430       C  0.85309708  0.35731405  0.29713387    -0.09600
C1431       C  0.82611881  0.35351239  0.27800347     0.29300
F1432       F  0.79829254  0.34965767  0.29345239    -0.20100
H1433       H  0.80632495  0.35225524  0.22858446     0.17600
H1434       H  0.90266096  0.36275063  0.29440649     0.17600
F1435       F  0.91105119  0.36386720  0.22984159    -0.20100
C1436       C  0.82894346  0.24130992  0.13966409    -0.21500
C1437       C  0.85611841  0.22474175  0.13524615    -0.09600
C1438       C  0.88444408  0.24110988  0.13463086     0.29300
C1439       C  0.88511897  0.27322607  0.13728770    -0.24200
C1440       C  0.85770154  0.28977521  0.14031363    -0.09600
C1441       C  0.82948457  0.27342017  0.14118977     0.29300
F1442       F  0.80222855  0.28827817  0.14210416    -0.20100
H1443       H  0.80693927  0.22967075  0.14147001     0.17600
H1444       H  0.90725171  0.28509926  0.13747543     0.17600
F1445       F  0.91162079  0.22615055  0.13293433    -0.20100
C1446       C  0.88291053  0.14483707  0.26403563    -0.21500
C1447       C  0.85505447  0.14561265  0.28213963    -0.09600
C1448       C  0.82722273  0.14687438  0.26411758     0.29300
C1449       C  0.82741343  0.14761762  0.22861433    -0.21500
C1450       C  0.85528114  0.14719822  0.21039112    -0.09600
C1451       C  0.88315508  0.14589611  0.22853841     0.29300
F1452       F  0.91073662  0.14695141  0.21217877    -0.20100
H1453       H  0.90459095  0.14421416  0.27747197     0.17600
H1454       H  0.80564980  0.14813469  0.21535042     0.17600
F1455       F  0.79975997  0.14649005  0.28073764    -0.20100
C1456       C  0.86081512  0.23493119  0.34022654    -0.21500
C1457       C  0.86136606  0.21658067  0.36967164    -0.09600
C1458       C  0.86343309  0.23126544  0.40146143     0.29300
C1459       C  0.86400362  0.26362836  0.40350773    -0.21500
C1460       C  0.86220551  0.28183561  0.37401980    -0.09600
C1461       C  0.86122652  0.26712722  0.34227718     0.29300
F1462       F  0.86074196  0.28387768  0.31309172    -0.20100
H1463       H  0.85986637  0.22430267  0.31542005     0.17600
H1464       H  0.86445578  0.27445845  0.42822110     0.17600
F1465       F  0.86305209  0.21447997  0.43061987    -0.20100
C1466       C  0.76705602  0.17406829  0.11906384    -0.21500
C1467       C  0.78313727  0.14649277  0.12200234    -0.09600
C1468       C  0.76638033  0.11838372  0.12141076     0.29300
C1469       C  0.73399532  0.11837519  0.11971126    -0.21500
C1470       C  0.71803252  0.14635871  0.11888938    -0.09600
C1471       C  0.73501139  0.17420620  0.11799051     0.29300
F1472       F  0.72066189  0.20171590  0.11579546    -0.20100
H1473       H  0.77935932  0.19573919  0.11706987     0.17600
H1474       H  0.72136112  0.09662277  0.12042239     0.17600
F1475       F  0.78115419  0.09112248  0.12384722    -0.20100
C1476       C  0.66108837  0.27283427  0.10141329    -0.21500
C1477       C  0.64913987  0.28731264  0.13028499    -0.09600
C1478       C  0.63555807  0.26932897  0.15621980     0.29300
C1479       C  0.63531878  0.23715324  0.15402094    -0.21500
C1480       C  0.64751548  0.22266834  0.12534079    -0.09600
C1481       C  0.66007811  0.24062673  0.09878955     0.29300
F1482       F  0.67183650  0.22695624  0.07074845    -0.20100
H1483       H  0.67125404  0.28650606  0.08103664     0.17600
H1484       H  0.62509515  0.22349319  0.17438717     0.17600
F1485       F  0.62155296  0.28289770  0.18300422    -0.20100
C1486       C  0.74090219  0.36033105  0.10405016    -0.21500
C1487       C  0.72332617  0.36585614  0.13335761    -0.09600
C1488       C  0.73832217  0.37336127  0.16374536     0.29300
C1489       C  0.77041085  0.37461470  0.16499318    -0.21500
C1490       C  0.78810974  0.36798966  0.13619491    -0.09600
C1491       C  0.77320785  0.36118036  0.10546598     0.29300
F1492       F  0.78982085  0.35382085  0.07745705    -0.20100
H1493       H  0.72961642  0.35421510  0.08051874     0.17600
H1494       H  0.78150389  0.38056922  0.18860969     0.17600
F1495       F  0.72189401  0.37941133  0.19229094    -0.20100
C1496       C  0.66040107  0.32951501  0.27059871    -0.21500
C1497       C  0.65244235  0.35557814  0.28955639    -0.09600
C1498       C  0.64646079  0.38320054  0.27190201     0.29300
C1499       C  0.64662622  0.38388474  0.23634719    -0.21500
C1500       C  0.65307981  0.35728068  0.21741161    -0.09600
C1501       C  0.66069607  0.33017273  0.23520738     0.29300
F1502       F  0.66744912  0.30365216  0.21895158    -0.20100
H1503       H  0.66570631  0.30796339  0.28289305     0.17600
H1504       H  0.64205025  0.40552199  0.22365853     0.17600
F1505       F  0.64130722  0.40985525  0.28876971    -0.20100
C1506       C  0.76624080  0.32275880  0.38202291    -0.21500
C1507       C  0.78228129  0.35095981  0.38515520    -0.09600
C1508       C  0.76541070  0.37829026  0.38855431     0.29300
C1509       C  0.73320603  0.37737187  0.38732800    -0.21500
C1510       C  0.71725450  0.34931904  0.38256075    -0.09600
C1511       C  0.73404594  0.32184453  0.38091384     0.29300
F1512       F  0.71938680  0.29406294  0.37830896    -0.20100
H1513       H  0.77868621  0.30137041  0.38009634     0.17600
H1514       H  0.72078846  0.39882013  0.38847692     0.17600
F1515       F  0.77998918  0.40613736  0.39081727    -0.20100
C1516       C  0.67217996  0.14577810  0.22121872    -0.21500
C1517       C  0.64432080  0.14620495  0.20339127    -0.09600
C1518       C  0.61629175  0.14509506  0.22148527     0.29300
C1519       C  0.61631861  0.14356124  0.25681691    -0.21500
C1520       C  0.64416515  0.14337869  0.27460558    -0.09600
C1521       C  0.67218022  0.14435009  0.25659964     0.29300
F1522       F  0.69948950  0.14290990  0.27308355    -0.20100
H1523       H  0.69398547  0.14605719  0.20771758     0.17600
H1524       H  0.59454329  0.14310388  0.27038156     0.17600
F1525       F  0.58889550  0.14656064  0.20518813    -0.20100
C1526       C  0.73183248  0.17016960  0.35995835    -0.21500
C1527       C  0.71655220  0.14154315  0.35672302    -0.09600
C1528       C  0.73376863  0.11451891  0.35423316     0.29300
C1529       C  0.76577503  0.11612724  0.35595158    -0.21500
C1530       C  0.78107219  0.14465306  0.36001363    -0.09600
C1531       C  0.76393217  0.17178540  0.36159307     0.29300
F1532       F  0.77808606  0.19963729  0.36592140    -0.20100
H1533       H  0.71885502  0.19123238  0.36194341     0.17600
H1534       H  0.77869346  0.09505414  0.35369380     0.17600
F1535       F  0.71973689  0.08671436  0.34916716    -0.20100
C1536       C  0.63232261  0.22916678  0.33403403    -0.21500
C1537       C  0.64022131  0.21144321  0.36244031    -0.09600
C1538       C  0.64877528  0.22623101  0.39264718     0.29300
C1539       C  0.64977529  0.25849588  0.39414205    -0.21500
C1540       C  0.64216513  0.27620350  0.36558196    -0.09600
C1541       C  0.63279293  0.26135866  0.33571490     0.29300
F1542       F  0.62320883  0.27791785  0.30858924    -0.20100
H1543       H  0.62561868  0.21798376  0.31060439     0.17600
H1544       H  0.65691457  0.26971840  0.41738123     0.17600
F1545       F  0.65730799  0.20949056  0.42012620    -0.20100
C1546       C  0.59990505  0.07714179  0.44592712    -0.21500
C1547       C  0.57789985  0.05717797  0.43146969    -0.09600
C1548       C  0.57253767  0.05893133  0.39647435     0.29300
C1549       C  0.58896740  0.08000656  0.37627374    -0.21500
C1550       C  0.61127681  0.10017496  0.39035159    -0.09600
C1551       C  0.61611859  0.09867567  0.42576484     0.29300
F1552       F  0.63634871  0.11834163  0.44098815    -0.20100
H1553       H  0.60366972  0.07694445  0.47309034     0.17600
H1554       H  0.58312401  0.08036775  0.34980858     0.17600
F1555       F  0.55100288  0.04042190  0.38167768    -0.20100
C1556       C  0.60319935  0.45029639  0.08732914    -0.21500
C1557       C  0.57912665  0.43981372  0.06656068    -0.09600
C1558       C  0.57198645  0.40811784  0.06589662     0.29300
C1559       C  0.58958242  0.38717263  0.08422121    -0.21500
C1560       C  0.61478907  0.39720555  0.10400569    -0.09600
C1561       C  0.62035048  0.42937700  0.10649312     0.29300
F1562       F  0.64289346  0.44060156  0.12697310    -0.20100
H1563       H  0.60879766  0.47471263  0.08862748     0.17600
H1564       H  0.58288239  0.36321973  0.08247827     0.17600
F1565       F  0.54886943  0.39705819  0.04607925    -0.20100
C1566       C  0.91792437  0.07100751  0.08181901    -0.21500
C1567       C  0.93770577  0.08439185  0.05725973    -0.09600
C1568       C  0.93465778  0.11584131  0.04960461     0.29300
C1569       C  0.91315623  0.13363110  0.06717276    -0.21500
C1570       C  0.89390476  0.12045141  0.09269238    -0.09600
C1571       C  0.89598252  0.08847764  0.09870473     0.29300
F1572       F  0.87687965  0.07398056  0.12129572    -0.20100
H1573       H  0.91879398  0.04655568  0.08748512     0.17600
H1574       H  0.91161422  0.15749325  0.05976126     0.17600
F1575       F  0.95234305  0.12947558  0.02510484    -0.20100
C1576       C  0.58273471  0.12892430  0.06880945    -0.21500
C1577       C  0.60699066  0.11659809  0.08805766    -0.09600
C1578       C  0.60799819  0.08420414  0.09195456     0.29300
C1579       C  0.58553967  0.06505847  0.07735358    -0.21500
C1580       C  0.56167970  0.07754341  0.05805973    -0.09600
C1581       C  0.56047027  0.10973522  0.05400633     0.29300
F1582       F  0.53764271  0.12282176  0.03573380    -0.20100
H1583       H  0.58004904  0.15334618  0.06520522     0.17600
H1584       H  0.58743471  0.04029464  0.08028765     0.17600
F1585       F  0.63059456  0.07098666  0.11042673    -0.20100
C1586       C  0.92221486  0.38723560  0.41308313    -0.21500
C1587       C  0.89038436  0.39278673  0.41039671    -0.09600
C1588       C  0.87998051  0.42241744  0.41972426     0.29300
C1589       C  0.89984382  0.44372545  0.43521603    -0.21500
C1590       C  0.93104304  0.43726082  0.43962011    -0.09600
C1591       C  0.94232006  0.40911927  0.42749371     0.29300
F1592       F  0.97252606  0.40217677  0.43076895    -0.20100
H1593       H  0.93177685  0.36598377  0.40374134     0.17600
H1594       H  0.89083020  0.46560523  0.44358179     0.17600
F1595       F  0.85092464  0.43158057  0.41302943    -0.20100
C1596       C  0.93384920  0.07965168  0.40890562    -0.21500
C1597       C  0.92035996  0.06045631  0.43399165    -0.09600
C1598       C  0.88894416  0.06371543  0.44136423     0.29300
C1599       C  0.87146349  0.08530481  0.42370193    -0.21500
C1600       C  0.88474278  0.10431079  0.39801768    -0.09600
C1601       C  0.91655064  0.10160018  0.39166126     0.29300
F1602       F  0.93111896  0.12042333  0.36884495    -0.20100
H1603       H  0.95826589  0.07853888  0.40337079     0.17600
H1604       H  0.84778815  0.08728886  0.43148427     0.17600
F1605       F  0.87509525  0.04645918  0.46610470    -0.20100
C1606       C  0.59225257  0.43264717  0.42690651    -0.21500
C1607       C  0.56589293  0.41961750  0.44252322    -0.09600
C1608       C  0.55946660  0.38801855  0.43753360     0.29300
C1609       C  0.57938615  0.36984148  0.41870064    -0.21500
C1610       C  0.60674719  0.38220605  0.40439178    -0.09600
C1611       C  0.61227622  0.41430333  0.40778258     0.29300
F1612       F  0.63724837  0.42795292  0.39280391    -0.20100
H1613       H  0.59761872  0.45698146  0.42981852     0.17600
H1614       H  0.57237636  0.34614923  0.41526657     0.17600
F1615       F  0.53383647  0.37423864  0.45095636    -0.20100
C1616       C  0.92069362  0.41733713  0.12513541    -0.21500
C1617       C  0.90022898  0.39550625  0.11054653    -0.09600
C1618       C  0.90247532  0.39047767  0.07520535     0.29300
C1619       C  0.92483503  0.40598248  0.05561262    -0.21500
C1620       C  0.94482010  0.42771217  0.07040106    -0.09600
C1621       C  0.94252437  0.43331076  0.10533152     0.29300
F1622       F  0.96130555  0.45448012  0.12038045    -0.20100
H1623       H  0.92001907  0.42306682  0.15164549     0.17600
H1624       H  0.92559914  0.40198494  0.02849322     0.17600
F1625       F  0.88286180  0.37054811  0.05946252    -0.20100
O1626       O  0.97899776  0.46138252  0.95433027    -0.80400
O1627       O  0.52987018  0.03399771  0.94525238    -0.80400
O1628       O  0.93192945  0.03172920  0.98455128    -0.80400
O1629       O  0.55032756  0.46759977  0.96928920    -0.80400
O1630       O  0.96772594  0.03676418  0.94553360    -0.80500
O1631       O  0.52361821  0.42489829  0.98046395    -0.80400
O1632       O  0.56617511  0.02843602  0.98209368    -0.80400
O1633       O  0.93846337  0.46952913  0.98729250    -0.80400
C1634       C  0.95040926  0.45803414  0.96057751     1.09300
C1635       C  0.55760370  0.03791684  0.95333324     1.09200
C1636       C  0.94037068  0.04061745  0.95499548     1.09300
C1637       C  0.54582532  0.43811530  0.96510283     1.09200
O1638       O  0.53389813  0.45680631  0.53739610    -0.80400
O1639       O  0.96863145  0.07151114  0.50845067    -0.80500
O1640       O  0.96713578  0.47574478  0.55477956    -0.80400
O1641       O  0.53787040  0.02874173  0.54664855    -0.80400
O1642       O  0.53103531  0.06677294  0.50993500    -0.80400
O1643       O  0.97548479  0.43775747  0.52092108    -0.80400
O1644       O  0.57753851  0.48301181  0.52888135    -0.80300
O1645       O  0.96302567  0.03739307  0.54922856    -0.80400
Co1646     Co  0.50666465  0.46246331  0.99386607     1.51500
Co1647     Co  0.99935387  0.04959233  0.47776188     1.51700
Co1648     Co  0.95283520  0.50357754  0.01864367     1.51600
Co1649     Co  0.54071929  0.99822573  0.50982860     1.51500
O1650       O  0.49621556  0.50709171  0.99954062    -1.42300
C1651       C  0.56296529  0.46109273  0.54351276     1.09200
C1652       C  0.95870257  0.06414518  0.53797370     1.09300
C1653       C  0.96453629  0.44748154  0.54852103     1.09300
C1654       C  0.54130276  0.05690455  0.53816199     1.09200
C1655       C  0.63019384  0.12307593  0.86864964     0.86200
C1656       C  0.66510063  0.11931891  0.87334736    -0.54000
C1657       C  0.68268236  0.14025336  0.85550404     0.09200
C1658       C  0.66402735  0.16271610  0.83412731     0.20100
C1659       C  0.62420953  0.15711176  0.87751006    -0.54700
C1660       C  0.64189188  0.17766474  0.85921258     0.09300
C1661       C  0.62591067  0.12141672  0.82972869    -0.54200
C1662       C  0.64376092  0.14202580  0.81196107     0.09800
H1663       H  0.67497459  0.10198996  0.88984646     0.14400
H1664       H  0.67827517  0.17968923  0.81946277     0.00100
H1665       H  0.60740070  0.16426433  0.89628055     0.14700
H1666       H  0.61147354  0.10502479  0.81639098     0.14500
C1667       C  0.62931790  0.36209702  0.88446420     0.86200
C1668       C  0.62365221  0.32673155  0.88621203    -0.54000
C1669       C  0.64365212  0.31018509  0.86722199     0.09200
C1670       C  0.66808174  0.32989986  0.84871855     0.20100
C1671       C  0.66318531  0.36607381  0.89545254    -0.54700
C1672       C  0.68346901  0.34909136  0.87684758     0.09300
C1673       C  0.62943352  0.36976645  0.84631097    -0.54200
C1674       C  0.64982678  0.35317068  0.82735751     0.09800
H1675       H  0.60630550  0.31492518  0.90144064     0.14400
H1676       H  0.68474403  0.31618471  0.83396119     0.00100
H1677       H  0.67039773  0.38069951  0.91634894     0.14700
H1678       H  0.61363603  0.38615054  0.83538423     0.14500
C1679       C  0.63579179  0.37458645  0.62262359     0.86200
C1680       C  0.67031756  0.38054964  0.61517008    -0.54000
C1681       C  0.68943888  0.36207443  0.63322573     0.09200
C1682       C  0.67263343  0.33869215  0.65638268     0.20100
C1683       C  0.63118224  0.33978395  0.61519160    -0.54700
C1684       C  0.65031182  0.32123326  0.63302097     0.09300
C1685       C  0.63272899  0.37698284  0.66153928    -0.54200
C1686       C  0.65200098  0.35822266  0.67945529     0.09800
H1687       H  0.67890972  0.39851362  0.59811984     0.14400
H1688       H  0.68898540  0.32356481  0.66971580     0.00100
H1689       H  0.61491306  0.32990767  0.59745386     0.14700
H1690       H  0.61633793  0.39210941  0.67364933     0.14500
C1691       C  0.62971757  0.13693472  0.60785736     0.86200
C1692       C  0.62752000  0.17239822  0.60335802    -0.54000
C1693       C  0.64712144  0.18872589  0.62359653     0.09200
C1694       C  0.66744121  0.16877193  0.64601593     0.20100
C1695       C  0.66415544  0.13023562  0.60129153    -0.54700
C1696       C  0.68389099  0.14713417  0.62124872     0.09300
C1697       C  0.62516724  0.13156077  0.64607443    -0.54200
C1698       C  0.64483263  0.14805595  0.66599369     0.09800
H1699       H  0.61212178  0.18429376  0.58647634     0.14400
H1700       H  0.68317586  0.18251547  0.66240424     0.00100
H1701       H  0.67211164  0.11413409  0.58225464     0.14700
H1702       H  0.60805045  0.11549551  0.65640570     0.14500
C1703       C  0.86600666  0.12747548  0.87735894     0.86200
C1704       C  0.87384337  0.16148645  0.88551648    -0.54000
C1705       C  0.85789614  0.18241408  0.86656983     0.09200
C1706       C  0.83553477  0.16729529  0.84113455     0.20100
C1707       C  0.83072035  0.12486183  0.88130106    -0.54700
C1708       C  0.81494772  0.14563423  0.86243206     0.09300
C1709       C  0.87114900  0.12469830  0.83867722    -0.54200
C1710       C  0.85514823  0.14547064  0.81977355     0.09800
H1711       H  0.89082379  0.16824913  0.90429867     0.14400
H1712       H  0.82243652  0.18399215  0.82566023     0.00100
H1713       H  0.81847624  0.10746513  0.89604786     0.14700
H1714       H  0.88538597  0.10716231  0.82720194     0.14500
C1715       C  0.87153104  0.13938223  0.61416633     0.86200
C1716       C  0.83740355  0.13205792  0.60673324    -0.54000
C1717       C  0.81717093  0.14793934  0.62648296     0.09200
C1718       C  0.83300797  0.16945382  0.65245815     0.20100
C1719       C  0.87447335  0.17483289  0.61115324    -0.54700
C1720       C  0.85476720  0.19059496  0.63160035     0.09300
C1721       C  0.87512821  0.13328411  0.65249549    -0.54200
C1722       C  0.85496762  0.14882087  0.67263650     0.09800
H1723       H  0.82997563  0.11637620  0.58686693     0.14400
H1724       H  0.81671053  0.18221512  0.66877719     0.00100
H1725       H  0.89107800  0.18695494  0.59530292     0.14700
H1726       H  0.89220369  0.11781687  0.66270147     0.14500
C1727       C  0.87661300  0.37672539  0.63153629     0.86200
C1728       C  0.88010042  0.34184914  0.62605729    -0.54000
C1729       C  0.85876430  0.32391590  0.64282943     0.09200
C1730       C  0.83627316  0.34254136  0.66454690     0.20100
C1731       C  0.84288005  0.38327527  0.62220550    -0.54700
C1732       C  0.82184964  0.36549976  0.63972377     0.09300
C1733       C  0.87763382  0.38029285  0.67055303    -0.54200
C1734       C  0.85692164  0.36198012  0.68782963     0.09800
H1735       H  0.89765548  0.33228633  0.60962949     0.14400
H1736       H  0.81923666  0.32812252  0.67870992     0.00100
H1737       H  0.83627038  0.40062612  0.60377690     0.14700
H1738       H  0.89316134  0.39549115  0.68401347     0.14500
C1739       C  0.86934922  0.36970421  0.89185584     0.86200
C1740       C  0.83489681  0.37052799  0.90155810    -0.54000
C1741       C  0.81642543  0.35187938  0.88228182     0.09200
C1742       C  0.83422513  0.33301599  0.85589380     0.20100
C1743       C  0.87716504  0.33502847  0.89539847    -0.54700
C1744       C  0.85885224  0.31589558  0.87619006     0.09300
C1745       C  0.87050173  0.37611077  0.85360727    -0.54200
C1746       C  0.85243855  0.35687529  0.83470182     0.09800
H1747       H  0.82578385  0.38392645  0.92237871     0.14400
H1748       H  0.81936264  0.31746133  0.84054755     0.00100
H1749       H  0.89547789  0.32635892  0.91126136     0.14700
H1750       H  0.88502614  0.39412077  0.84236163     0.14500
C1751       C  0.82751828  0.35476059  0.74254688    -0.21500
C1752       C  0.85575944  0.35977165  0.72554759    -0.09600
C1753       C  0.88288342  0.36200111  0.74488880     0.29300
C1754       C  0.88141232  0.36107728  0.78020819    -0.21500
C1755       C  0.85309320  0.35731859  0.79713956    -0.09600
C1756       C  0.82611404  0.35351651  0.77801058     0.29300
F1757       F  0.79828891  0.34965825  0.79346108    -0.20100
H1758       H  0.80631753  0.35226197  0.72859235     0.17600
H1759       H  0.90265655  0.36275928  0.79440871     0.17600
F1760       F  0.91104310  0.36388179  0.72984389    -0.20100
C1761       C  0.82894415  0.24131660  0.63966672    -0.21500
C1762       C  0.85611970  0.22475082  0.63524223    -0.09600
C1763       C  0.88444403  0.24112129  0.63462481     0.29300
C1764       C  0.88511662  0.27323711  0.63728693    -0.24200
C1765       C  0.85769809  0.28978385  0.64031907    -0.09600
C1766       C  0.82948257  0.27342646  0.64119661     0.29300
F1767       F  0.80222532  0.28828191  0.64211615    -0.20100
H1768       H  0.80694057  0.22967565  0.64147526     0.17600
H1769       H  0.90724850  0.28511175  0.63747333     0.17600
F1770       F  0.91162187  0.22616455  0.63292151    -0.20100
C1771       C  0.88292619  0.14484856  0.76403220    -0.21500
C1772       C  0.85507042  0.14561851  0.78213724    -0.09600
C1773       C  0.82723793  0.14687776  0.76411642     0.29300
C1774       C  0.82742726  0.14762414  0.72861338    -0.21500
C1775       C  0.85529436  0.14721014  0.71038908    -0.09600
C1776       C  0.88316937  0.14591072  0.72853497     0.29300
F1777       F  0.91075029  0.14697115  0.71217417    -0.20100
H1778       H  0.90460711  0.14422769  0.77746769     0.17600
H1779       H  0.80566314  0.14813887  0.71535052     0.17600
F1780       F  0.79977565  0.14648786  0.78073745    -0.20100
C1781       C  0.86082554  0.23493424  0.84022832    -0.21500
C1782       C  0.86137356  0.21658279  0.86967291    -0.09600
C1783       C  0.86343312  0.23126641  0.90146375     0.29300
C1784       C  0.86400128  0.26362921  0.90351145    -0.21500
C1785       C  0.86220771  0.28183733  0.87402375    -0.09600
C1786       C  0.86123403  0.26713023  0.84228037     0.29300
F1787       F  0.86075216  0.28388209  0.81309579    -0.20100
H1788       H  0.85988135  0.22430641  0.81542125     0.17600
H1789       H  0.86444859  0.27445854  0.92822532     0.17600
F1790       F  0.86304742  0.21447961  0.93062129    -0.20100
C1791       C  0.76706063  0.17407052  0.61907017    -0.21500
C1792       C  0.78314407  0.14649585  0.62200268    -0.09600
C1793       C  0.76638874  0.11838587  0.62140183     0.29300
C1794       C  0.73400352  0.11837562  0.61970117    -0.21500
C1795       C  0.71803859  0.14635820  0.61888622    -0.09600
C1796       C  0.73501609  0.17420681  0.61799454     0.29300
F1797       F  0.72066532  0.20171616  0.61580356    -0.20100
H1798       H  0.77936251  0.19574291  0.61708137     0.17600
H1799       H  0.72137085  0.09662228  0.62040588     0.17600
F1800       F  0.78116425  0.09112495  0.62382990    -0.20100
C1801       C  0.66107820  0.27283177  0.60140443    -0.21500
C1802       C  0.64913535  0.28730937  0.63027959    -0.09600
C1803       C  0.63556138  0.26932458  0.65621828     0.29300
C1804       C  0.63532504  0.23714885  0.65402004    -0.21500
C1805       C  0.64751692  0.22266460  0.62533700    -0.09600
C1806       C  0.66007108  0.24062396  0.59878165     0.29300
F1807       F  0.67182486  0.22695428  0.57073767    -0.20100
H1808       H  0.67123762  0.28650430  0.58102471     0.17600
H1809       H  0.62510729  0.22348813  0.67438924     0.17600
F1810       F  0.62156059  0.28289220  0.68300611    -0.20100
C1811       C  0.74089351  0.36033281  0.60405171    -0.21500
C1812       C  0.72331609  0.36585866  0.63335784    -0.09600
C1813       C  0.73831074  0.37336431  0.66374637     0.29300
C1814       C  0.77039943  0.37461752  0.66499610    -0.21500
C1815       C  0.78809968  0.36799256  0.63619880    -0.09600
C1816       C  0.77319907  0.36118255  0.60546925     0.29300
F1817       F  0.78981334  0.35382280  0.57746135    -0.20100
H1818       H  0.72960884  0.35421598  0.58051981     0.17600
H1819       H  0.78149146  0.38057198  0.68861342     0.17600
F1820       F  0.72188119  0.37941487  0.69229083    -0.20100
C1821       C  0.66041233  0.32952061  0.77059719    -0.21500
C1822       C  0.65244793  0.35558244  0.78955419    -0.09600
C1823       C  0.64645723  0.38320187  0.77189815     0.29300
C1824       C  0.64661711  0.38388315  0.73634324    -0.21500
C1825       C  0.65307345  0.35727900  0.71740886    -0.09600
C1826       C  0.66069965  0.33017476  0.73520588     0.29300
F1827       F  0.66745500  0.30365382  0.71895194    -0.20100
H1828       H  0.66572785  0.30797216  0.78289166     0.17600
H1829       H  0.64203464  0.40551842  0.72365359     0.17600
F1830       F  0.64130035  0.40985684  0.78876401    -0.20100
C1831       C  0.76624365  0.32276156  0.88203201    -0.21500
C1832       C  0.78228463  0.35096192  0.88516771    -0.09600
C1833       C  0.76541442  0.37829235  0.88857006     0.29300
C1834       C  0.73320977  0.37737488  0.88734004    -0.21500
C1835       C  0.71725813  0.34932291  0.88256676    -0.09600
C1836       C  0.73404898  0.32184816  0.88091995     0.29300
F1837       F  0.71938942  0.29406708  0.87831175    -0.20100
H1838       H  0.77868857  0.30137302  0.88010417     0.17600
H1839       H  0.72079261  0.39882324  0.88849041     0.17600
F1840       F  0.77999324  0.40613885  0.89083899    -0.20100
C1841       C  0.67219107  0.14577726  0.72121610    -0.21500
C1842       C  0.64433050  0.14620102  0.70339067    -0.09600
C1843       C  0.61630298  0.14508758  0.72148734     0.29300
C1844       C  0.61633253  0.14355351  0.75681904    -0.21500
C1845       C  0.64418020  0.14337426  0.77460581    -0.09600
C1846       C  0.67219396  0.14434908  0.75659733     0.29300
F1847       F  0.69950461  0.14291234  0.77307893    -0.20100
H1848       H  0.69399562  0.14605901  0.70771329     0.17600
H1849       H  0.59455806  0.14309380  0.77038529     0.17600
F1850       F  0.58890527  0.14655032  0.70519289    -0.20100
C1851       C  0.73184729  0.17017077  0.85996321    -0.21500
C1852       C  0.71656619  0.14154476  0.85672774    -0.09600
C1853       C  0.73378175  0.11452011  0.85423641     0.29300
C1854       C  0.76578838  0.11612764  0.85595138    -0.21500
C1855       C  0.78108651  0.14465308  0.86001253    -0.09600
C1856       C  0.76394719  0.17178567  0.86159578     0.29300
F1857       F  0.77810207  0.19963689  0.86592562    -0.20100
H1858       H  0.71887037  0.19123364  0.86194968     0.17600
H1859       H  0.77870611  0.09505437  0.85369172     0.17600
F1860       F  0.71974884  0.08671589  0.84917194    -0.20100
C1861       C  0.63235120  0.22916881  0.83402213    -0.21500
C1862       C  0.64023263  0.21144535  0.86243469    -0.09600
C1863       C  0.64876466  0.22623361  0.89264881     0.29300
C1864       C  0.64976379  0.25849850  0.89414357    -0.21500
C1865       C  0.64217262  0.27620612  0.86557691    -0.09600
C1866       C  0.63281821  0.26136070  0.83570343     0.29300
F1867       F  0.62324449  0.27791885  0.80857257    -0.20100
H1868       H  0.62566132  0.21798573  0.81058778     0.17600
H1869       H  0.65688728  0.26972112  0.91738858     0.17600
F1870       F  0.65727692  0.20949365  0.92013625    -0.20100
C1871       C  0.59991442  0.07714579  0.94593070    -0.21500
C1872       C  0.57790556  0.05718564  0.93147361    -0.09600
C1873       C  0.57254159  0.05894241  0.89647864     0.29300
C1874       C  0.58897387  0.08001592  0.87627825    -0.21500
C1875       C  0.61128827  0.10017912  0.89035535    -0.09600
C1876       C  0.61613056  0.09867822  0.92576855     0.29300
F1877       F  0.63636349  0.11834123  0.94099193    -0.20100
H1878       H  0.60368039  0.07694662  0.97309385     0.17600
H1879       H  0.58312766  0.08038107  0.84981387     0.17600
F1880       F  0.55100253  0.04043809  0.88168189    -0.20100
C1881       C  0.60318359  0.45029239  0.58733232    -0.21500
C1882       C  0.57911742  0.43980910  0.56655524    -0.09600
C1883       C  0.57198221  0.40811242  0.56588348     0.29300
C1884       C  0.58957705  0.38716723  0.58420936    -0.21500
C1885       C  0.61477744  0.39720099  0.60400299    -0.09600
C1886       C  0.62033347  0.42937285  0.60649747     0.29300
F1887       F  0.64287026  0.44059764  0.62698549    -0.20100
H1888       H  0.60877776  0.47470937  0.58863651     0.17600
H1889       H  0.58288159  0.36321368  0.58245901     0.17600
F1890       F  0.54887185  0.39705239  0.54605702    -0.20100
C1891       C  0.91793516  0.07101691  0.58182515    -0.21500
C1892       C  0.93771295  0.08439871  0.55726103    -0.09600
C1893       C  0.93466337  0.11584741  0.54960189     0.29300
C1894       C  0.91316246  0.13363851  0.56716954    -0.21500
C1895       C  0.89391316  0.12046063  0.59269202    -0.09600
C1896       C  0.89599373  0.08848787  0.59870980     0.29300
F1897       F  0.87689380  0.07399253  0.62130507    -0.20100
H1898       H  0.91880647  0.04656580  0.58749538     0.17600
H1899       H  0.91161873  0.15749993  0.55975558     0.17600
F1900       F  0.95234574  0.12947935  0.52509807    -0.20100
C1901       C  0.58274195  0.12891899  0.56880383    -0.21500
C1902       C  0.60699483  0.11659254  0.58805688    -0.09600
C1903       C  0.60799905  0.08419868  0.59195673     0.29300
C1904       C  0.58553991  0.06505361  0.57735495    -0.21500
C1905       C  0.56168262  0.07753902  0.55805706    -0.09600
C1906       C  0.56047698  0.10973071  0.55400022     0.29300
F1907       F  0.53765269  0.12281818  0.53572348    -0.20100
H1908       H  0.58005919  0.15334057  0.56519514     0.17600
H1909       H  0.58743231  0.04028984  0.58029179     0.17600
F1910       F  0.63059288  0.07098074  0.61043229    -0.20100
C1911       C  0.92222165  0.38723538  0.91308253    -0.21500
C1912       C  0.89039086  0.39278683  0.91039932    -0.09600
C1913       C  0.87998816  0.42241769  0.91972731     0.29300
C1914       C  0.89985288  0.44372557  0.93521673    -0.21500
C1915       C  0.93105231  0.43726058  0.93961850    -0.09600
C1916       C  0.94232833  0.40911892  0.92749121     0.29300
F1917       F  0.97253457  0.40217622  0.93076397    -0.20100
H1918       H  0.93178263  0.36598331  0.90373984     0.17600
H1919       H  0.89083994  0.46560532  0.94358328     0.17600
F1920       F  0.85093175  0.43158095  0.91303553    -0.20100
C1921       C  0.93386054  0.07964823  0.90890337    -0.21500
C1922       C  0.92036936  0.06045506  0.93399043    -0.09600
C1923       C  0.88895474  0.06371981  0.94136515     0.29300
C1924       C  0.87147677  0.08531136  0.92370309    -0.21500
C1925       C  0.88475724  0.10431346  0.89801606    -0.09600
C1926       C  0.91656458  0.10159899  0.89165907     0.29300
F1927       F  0.93113484  0.12042036  0.86884245    -0.20100
H1928       H  0.95827690  0.07853185  0.90336759     0.17600
H1929       H  0.84780276  0.08730071  0.93148823     0.17600
F1930       F  0.87510457  0.04646762  0.96610817    -0.20100
C1931       C  0.59225363  0.43264974  0.92689948    -0.21500
C1932       C  0.56590164  0.41961787  0.94252954    -0.09600
C1933       C  0.55948103  0.38801619  0.93755194     0.29300
C1934       C  0.57939809  0.36983934  0.91871589    -0.21500
C1935       C  0.60675100  0.38220697  0.90439129    -0.09600
C1936       C  0.61227510  0.41430593  0.90777277     0.29300
F1937       F  0.63724084  0.42795700  0.89278265    -0.20100
H1938       H  0.59761552  0.45698587  0.92980299     0.17600
H1939       H  0.57239291  0.34614456  0.91529429     0.17600
F1940       F  0.53385947  0.37423284  0.95099059    -0.20100
C1941       C  0.92067889  0.41735031  0.62513588    -0.21500
C1942       C  0.90021750  0.39551539  0.61054902    -0.09600
C1943       C  0.90246771  0.39048095  0.57520909     0.29300
C1944       C  0.92482943  0.40598260  0.55561613    -0.21500
C1945       C  0.94481231  0.42771541  0.57040268    -0.09600
C1946       C  0.94251167  0.43332077  0.60533155     0.29300
F1947       F  0.96128976  0.45449404  0.62037856    -0.20100
H1948       H  0.91999993  0.42308541  0.65164426     0.17600
H1949       H  0.92559686  0.40198002  0.52849784     0.17600
F1950       F  0.88285674  0.37054786  0.55946769    -0.20100
O1951       O  0.97898681  0.96138373  0.45433052    -0.80400
O1952       O  0.52986474  0.53399225  0.44524827    -0.80400
O1953       O  0.93192557  0.53173343  0.48455172    -0.80400
O1954       O  0.55032011  0.96759708  0.46928752    -0.80400
O1955       O  0.96771995  0.53676752  0.44553107    -0.80500
O1956       O  0.52360670  0.92489677  0.48045614    -0.80400
O1957       O  0.56617039  0.52843019  0.48208908    -0.80400
O1958       O  0.93845496  0.96953102  0.48729625    -0.80400
C1959       C  0.95039875  0.95803564  0.46058008     1.09300
C1960       C  0.55759866  0.53790961  0.45332830     1.09200
C1961       C  0.94036503  0.54062066  0.45499507     1.09300
C1962       C  0.54581571  0.93811335  0.46509775     1.09200
O1963       O  0.53390326  0.95681249  0.03740464    -0.80400
O1964       O  0.96863096  0.57151056  0.00844969    -0.80500
O1965       O  0.96713849  0.97574279  0.05478344    -0.80400
O1966       O  0.53787332  0.52874315  0.04665004    -0.80400
O1967       O  0.53103588  0.56677507  0.00993771    -0.80400
O1968       O  0.97549397  0.93775640  0.02092578    -0.80400
O1969       O  0.57754364  0.98301634  0.02888548    -0.80300
O1970       O  0.96302610  0.53739163  0.04922646    -0.80400
Co1971     Co  0.50665593  0.96246257  0.49386202     1.51500
Co1972     Co  0.99935782  0.54959456  0.97776243     1.51700
Co1973     Co  0.95283072  0.00357902  0.51864689     1.51600
Co1974     Co  0.54072530  0.49822827  0.00982980     1.51500
O1975       O  0.49621003  0.00709137  0.49953981    -1.42300
C1976       C  0.56297087  0.96109806  0.04351899     1.09200
C1977       C  0.95870008  0.56414310  0.03797162     1.09300
C1978       C  0.96454286  0.94747924  0.04852480     1.09300
C1979       C  0.54130325  0.55690641  0.03816447     1.09200
C1980       C  0.63017845  0.62307352  0.36864503     0.86200
C1981       C  0.66508514  0.61931507  0.37334131    -0.54000
C1982       C  0.68266704  0.64025042  0.35549979     0.09200
C1983       C  0.66401226  0.66271567  0.33412640     0.20100
C1984       C  0.62419517  0.65710887  0.37750942    -0.54700
C1985       C  0.64187810  0.67766264  0.35921381     0.09300
C1986       C  0.62589323  0.62141866  0.32972424    -0.54200
C1987       C  0.64374435  0.64202841  0.31195881     0.09800
H1988       H  0.67495875  0.60198496  0.38983924     0.14400
H1989       H  0.67825997  0.67968978  0.31946310     0.00100
H1990       H  0.60738685  0.66426057  0.39628103     0.14700
H1991       H  0.61145284  0.60503096  0.31638483     0.14500
C1992       C  0.62931258  0.86209429  0.38446502     0.86200
C1993       C  0.62364532  0.82672923  0.38621452    -0.54000
C1994       C  0.64364379  0.81018145  0.36722392     0.09200
C1995       C  0.66807340  0.82989426  0.34871847     0.20100
C1996       C  0.66318083  0.86606918  0.39545191    -0.54700
C1997       C  0.68346288  0.84908551  0.37684587     0.09300
C1998       C  0.62942739  0.86976306  0.34631176    -0.54200
C1999       C  0.64981883  0.85316559  0.32735799     0.09800
H2000       H  0.60629940  0.81492481  0.40144634     0.14400
H2001       H  0.68473420  0.81617786  0.33396032     0.00100
H2002       H  0.67039522  0.88069484  0.41634762     0.14700
H2003       H  0.61363095  0.88614835  0.33538521     0.14500
C2004       C  0.63580016  0.87458991  0.12262455     0.86200
C2005       C  0.67032622  0.88055055  0.11517045    -0.54000
C2006       C  0.68944648  0.86207445  0.13322659     0.09200
C2007       C  0.67263937  0.83869357  0.15638416     0.20100
C2008       C  0.63118828  0.83978772  0.11519299    -0.54700
C2009       C  0.65031661  0.82123600  0.13302272     0.09300
C2010       C  0.63273768  0.87698706  0.16154008    -0.54200
C2011       C  0.65200795  0.85822541  0.17945642     0.09800
H2012       H  0.67891942  0.89851342  0.09811961     0.14400
H2013       H  0.68899009  0.82356503  0.16971793     0.00100
H2014       H  0.61491893  0.82991255  0.09745476     0.14700
H2015       H  0.61634706  0.89211423  0.17364985     0.14500
C2016       C  0.62971357  0.63693907  0.10785732     0.86200
C2017       C  0.62751691  0.67240254  0.10335734    -0.54000
C2018       C  0.64711819  0.68872967  0.12359672     0.09200
C2019       C  0.66743667  0.66877535  0.14601702     0.20100
C2020       C  0.66415108  0.63023905  0.10129271    -0.54700
C2021       C  0.68388614  0.64713674  0.12125074     0.09300
C2022       C  0.62516161  0.63156539  0.14607393    -0.54200
C2023       C  0.64482638  0.64806044  0.16599366     0.09800
H2024       H  0.61211984  0.68429809  0.08647429     0.14400
H2025       H  0.68317171  0.68251840  0.16240547     0.00100
H2026       H  0.67210758  0.61413719  0.08225623     0.14700
H2027       H  0.60804391  0.61550089  0.15640465     0.14500
C2028       C  0.86599020  0.62747254  0.37736366     0.86200
C2029       C  0.87382922  0.66148318  0.38551984    -0.54000
C2030       C  0.85788275  0.68241149  0.36657343     0.09200
C2031       C  0.83551943  0.66729324  0.34113936     0.20100
C2032       C  0.83070392  0.62486127  0.38130810    -0.54700
C2033       C  0.81493180  0.64563374  0.36243822     0.09300
C2034       C  0.87113077  0.62469407  0.33868203    -0.54200
C2035       C  0.85513072  0.64546672  0.31977817     0.09800
H2036       H  0.89081136  0.66824501  0.40430045     0.14400
H2037       H  0.82242162  0.68399047  0.32566490     0.00100
H2038       H  0.81845938  0.60746633  0.39605677     0.14700
H2039       H  0.88536679  0.60715715  0.32720696     0.14500
C2040       C  0.87152307  0.63937127  0.11417008     0.86200
C2041       C  0.83739542  0.63205088  0.10673448    -0.54000
C2042       C  0.81716380  0.64793352  0.12648413     0.09200
C2043       C  0.83300106  0.66944522  0.15246129     0.20100
C2044       C  0.87446948  0.67482182  0.11116019    -0.54700
C2045       C  0.85476362  0.69058494  0.13160630     0.09300
C2046       C  0.87511715  0.63327044  0.15249951    -0.54200
C2047       C  0.85495683  0.64880870  0.17264019     0.09800
H2048       H  0.82996661  0.61637046  0.08686736     0.14400
H2049       H  0.81670378  0.68220779  0.16877930     0.00100
H2050       H  0.89107694  0.68694307  0.09531277     0.14700
H2051       H  0.89219045  0.61780095  0.16270573     0.14500
C2052       C  0.87662216  0.87671507  0.13153461     0.86200
C2053       C  0.88010659  0.84183854  0.12605320    -0.54000
C2054       C  0.85876893  0.82390635  0.14282471     0.09200
C2055       C  0.83627951  0.84253269  0.16454304     0.20100
C2056       C  0.84288972  0.88326828  0.12220424    -0.54700
C2057       C  0.82185781  0.86549352  0.13972118     0.09300
C2058       C  0.87764293  0.88028051  0.17055148    -0.54200
C2059       C  0.85692966  0.86196849  0.18782694     0.09800
H2060       H  0.89766107  0.83227489  0.10962517     0.14400
H2061       H  0.81924196  0.82811436  0.17870497     0.00100
H2062       H  0.83628150  0.90062102  0.10377696     0.14700
H2063       H  0.89317019  0.89547821  0.18401302     0.14500
C2064       C  0.86934218  0.86970338  0.39185422     0.86200
C2065       C  0.83488866  0.87052578  0.40155187    -0.54000
C2066       C  0.81642019  0.85187608  0.38227386     0.09200
C2067       C  0.83422325  0.83301260  0.35588922     0.20100
C2068       C  0.87715915  0.83502792  0.39539907    -0.54700
C2069       C  0.85884905  0.81589358  0.37618882     0.09300
C2070       C  0.87049875  0.87610846  0.35360537    -0.54200
C2071       C  0.85243818  0.85687162  0.33469860     0.09800
H2072       H  0.82577231  0.88392268  0.42237174     0.14400
H2073       H  0.81936222  0.81745725  0.34054223     0.00100
H2074       H  0.89547149  0.82636016  0.41126394     0.14700
H2075       H  0.88502393  0.89411844  0.34236059     0.14500
C2076       C  0.82752451  0.85474884  0.24254260    -0.21500
C2077       C  0.85576629  0.85976014  0.22554484    -0.09600
C2078       C  0.88288927  0.86199174  0.24488771     0.29300
C2079       C  0.88141609  0.86107101  0.28020718    -0.21500
C2080       C  0.85309593  0.85731292  0.29713660    -0.09600
C2081       C  0.82611821  0.85350801  0.27800606     0.29300
F2082       F  0.79829218  0.84965022  0.29345468    -0.20100
H2083       H  0.80632466  0.85224755  0.22858746     0.17600
H2084       H  0.90265930  0.86275485  0.29440926     0.17600
F2085       F  0.91104984  0.86387166  0.22984467    -0.20100
C2086       C  0.82894290  0.74130849  0.13966610    -0.21500
C2087       C  0.85611808  0.72474076  0.13524729    -0.09600
C2088       C  0.88444349  0.74110922  0.13463180     0.29300
C2089       C  0.88511803  0.77322540  0.13728922    -0.24200
C2090       C  0.85770039  0.78977420  0.14031590    -0.09600
C2091       C  0.82948365  0.77341876  0.14119250     0.29300
F2092       F  0.80222742  0.78827633  0.14210792    -0.20100
H2093       H  0.80693897  0.72966901  0.14147213     0.17600
H2094       H  0.90725055  0.78509876  0.13747673     0.17600
F2095       F  0.91162039  0.72615027  0.13293460    -0.20100
C2096       C  0.88290968  0.64483628  0.26403795    -0.21500
C2097       C  0.85505356  0.64561342  0.28214171    -0.09600
C2098       C  0.82722205  0.64687641  0.26411931     0.29300
C2099       C  0.82741313  0.64761923  0.22861605    -0.21500
C2100       C  0.85528091  0.64719813  0.21039305    -0.09600
C2101       C  0.88315461  0.64589489  0.22854072     0.29300
F2102       F  0.91073637  0.64694875  0.21218152    -0.20100
H2103       H  0.90458998  0.64421240  0.27747448     0.17600
H2104       H  0.80564956  0.64813720  0.21535199     0.17600
F2105       F  0.79975912  0.64649359  0.28073898    -0.20100
C2106       C  0.86081308  0.73493073  0.34022983    -0.21500
C2107       C  0.86136414  0.71658016  0.36967486    -0.09600
C2108       C  0.86343223  0.73126490  0.40146465     0.29300
C2109       C  0.86400358  0.76362781  0.40351093    -0.21500
C2110       C  0.86220529  0.78183515  0.37402311    -0.09600
C2111       C  0.86122536  0.76712671  0.34228047     0.29300
F2112       F  0.86074041  0.78387713  0.31309500    -0.20100
H2113       H  0.85986367  0.72430228  0.31542328     0.17600
H2114       H  0.86445637  0.77445794  0.42822443     0.17600
F2115       F  0.86305162  0.71447940  0.43062306    -0.20100
C2116       C  0.76705677  0.67406769  0.11906207    -0.21500
C2117       C  0.78313755  0.64649206  0.12200378    -0.09600
C2118       C  0.76638041  0.61838315  0.12141492     0.29300
C2119       C  0.73399549  0.61837476  0.11971474    -0.21500
C2120       C  0.71803307  0.64635840  0.11888940    -0.09600
C2121       C  0.73501208  0.67420572  0.11798797     0.29300
F2122       F  0.72066265  0.70171530  0.11578963    -0.20100
H2123       H  0.77936034  0.69573818  0.11706613     0.17600
H2124       H  0.72136110  0.59662261  0.12042804     0.17600
F2125       F  0.78115394  0.59112195  0.12385480    -0.20100
C2126       C  0.66108209  0.77283438  0.10140704    -0.21500
C2127       C  0.64913812  0.78731239  0.13028132    -0.09600
C2128       C  0.63556070  0.76932839  0.15621849     0.29300
C2129       C  0.63532221  0.73715271  0.15401984    -0.21500
C2130       C  0.64751498  0.72266812  0.12533743    -0.09600
C2131       C  0.66007241  0.74062679  0.09878354     0.29300
F2132       F  0.67182671  0.72695660  0.07074014    -0.20100
H2133       H  0.67124401  0.78650641  0.08102850     0.17600
H2134       H  0.62510218  0.72349249  0.17438790     0.17600
F2135       F  0.62155849  0.78289669  0.18300502    -0.20100
C2136       C  0.74090054  0.86034016  0.10404911    -0.21500
C2137       C  0.72332402  0.86585685  0.13335833    -0.09600
C2138       C  0.73831979  0.87335369  0.16374866     0.29300
C2139       C  0.77040842  0.87460680  0.16499719    -0.21500
C2140       C  0.78810789  0.86798936  0.13619711    -0.09600
C2141       C  0.77320628  0.86118900  0.10546559     0.29300
F2142       F  0.78981958  0.85383757  0.07745419    -0.20100
H2143       H  0.72961513  0.85423090  0.08051544     0.17600
H2144       H  0.78150092  0.88055561  0.18861561     0.17600
F2145       F  0.72189146  0.87939627  0.19229613    -0.20100
C2146       C  0.66040198  0.82951543  0.27059762    -0.21500
C2147       C  0.65244074  0.85557798  0.28955506    -0.09600
C2148       C  0.64645622  0.88319942  0.27190020     0.29300
C2149       C  0.64662091  0.88388302  0.23634537    -0.21500
C2150       C  0.65307672  0.85727930  0.21741007    -0.09600
C2151       C  0.66069636  0.83017261  0.23520627     0.29300
F2152       F  0.66745258  0.80365255  0.21895115    -0.20100
H2153       H  0.66570969  0.80796464  0.28289190     0.17600
H2154       H  0.64204280  0.90551958  0.22365660     0.17600
F2155       F  0.64130038  0.90985401  0.28876723    -0.20100
C2156       C  0.76623869  0.82275691  0.38202397    -0.21500
C2157       C  0.78227925  0.85095790  0.38515605    -0.09600
C2158       C  0.76540878  0.87828851  0.38855403     0.29300
C2159       C  0.73320417  0.87737033  0.38732728    -0.21500
C2160       C  0.71725257  0.84931752  0.38256048    -0.09600
C2161       C  0.73404381  0.82184285  0.38091436     0.29300
F2162       F  0.71938443  0.79406136  0.37830992    -0.20100
H2163       H  0.77868404  0.80136840  0.38009811     0.17600
H2164       H  0.72078675  0.89881863  0.38847549     0.17600
F2165       F  0.77998736  0.90613562  0.39081630    -0.20100
C2166       C  0.67218028  0.64577983  0.22121754    -0.21500
C2167       C  0.64432114  0.64620668  0.20339006    -0.09600
C2168       C  0.61629206  0.64509657  0.22148397     0.29300
C2169       C  0.61631883  0.64356209  0.25681555    -0.21500
C2170       C  0.64416531  0.64337904  0.27460424    -0.09600
C2171       C  0.67218043  0.64435112  0.25659843     0.29300
F2172       F  0.69948965  0.64291071  0.27308238    -0.20100
H2173       H  0.69398579  0.64605918  0.20771651     0.17600
H2174       H  0.59454348  0.64310450  0.27038009     0.17600
F2175       F  0.58889583  0.64656238  0.20518681    -0.20100
C2176       C  0.73183111  0.67016865  0.35996014    -0.21500
C2177       C  0.71655078  0.64154227  0.35672468    -0.09600
C2178       C  0.73376704  0.61451788  0.35423567     0.29300
C2179       C  0.76577346  0.61612605  0.35595440    -0.21500
C2180       C  0.78107071  0.64465191  0.36001613    -0.09600
C2181       C  0.76393077  0.67178430  0.36159539     0.29300
F2182       F  0.77808463  0.69963618  0.36592391    -0.20100
H2183       H  0.71885373  0.69123144  0.36194471     0.17600
H2184       H  0.77869177  0.59505295  0.35369693     0.17600
F2185       F  0.71973515  0.58671333  0.34916994    -0.20100
C2186       C  0.63232360  0.72916622  0.33403077    -0.21500
C2187       C  0.64021987  0.71144271  0.36243793    -0.09600
C2188       C  0.64877150  0.72623051  0.39264560     0.29300
C2189       C  0.64977124  0.75849534  0.39414047    -0.21500
C2190       C  0.64216336  0.77620292  0.36557959    -0.09600
C2191       C  0.63279386  0.76135805  0.33571148     0.29300
F2192       F  0.62321209  0.77791713  0.30858470    -0.20100
H2193       H  0.62562157  0.71798311  0.31060040     0.17600
H2194       H  0.65690864  0.76971791  0.41738038     0.17600
F2195       F  0.65730224  0.70949005  0.42012541    -0.20100
C2196       C  0.59990019  0.57714643  0.44592676    -0.21500
C2197       C  0.57790008  0.55717746  0.43146876    -0.09600
C2198       C  0.57254274  0.55892483  0.39647225     0.29300
C2199       C  0.58897198  0.57999987  0.37627102    -0.21500
C2200       C  0.61127541  0.60017449  0.39034966    -0.09600
C2201       C  0.61611311  0.59868016  0.42576388     0.29300
F2202       F  0.63633853  0.61835089  0.44098735    -0.20100
H2203       H  0.60366112  0.57695314  0.47309079     0.17600
H2204       H  0.58313363  0.58035488  0.34980434     0.17600
F2205       F  0.55101365  0.54040908  0.38167509    -0.20100
C2206       C  0.60319488  0.95029668  0.08733187    -0.21500
C2207       C  0.57912403  0.93981436  0.06656071    -0.09600
C2208       C  0.57198544  0.90811820  0.06589329     0.29300
C2209       C  0.58958150  0.88717253  0.08421712    -0.21500
C2210       C  0.61478638  0.89720529  0.10400446    -0.09600
C2211       C  0.62034589  0.92937681  0.10649527     0.29300
F2212       F  0.64288687  0.94060096  0.12697816    -0.20100
H2213       H  0.60879184  0.97471323  0.08863282     0.17600
H2214       H  0.58288299  0.86321951  0.08247115     0.17600
F2215       F  0.54887011  0.89705888  0.04607327    -0.20100
C2216       C  0.91793025  0.57100923  0.08182281    -0.21500
C2217       C  0.93770592  0.58439338  0.05725782    -0.09600
C2218       C  0.93465094  0.61584123  0.04959783     0.29300
C2219       C  0.91314918  0.63362978  0.06716740    -0.21500
C2220       C  0.89390445  0.62045050  0.09269332    -0.09600
C2221       C  0.89598782  0.58847778  0.09870960     0.29300
F2222       F  0.87688978  0.57398018  0.12130506    -0.20100
H2223       H  0.91880463  0.54655814  0.08749278     0.17600
H2224       H  0.91160073  0.65749032  0.05975173     0.17600
F2225       F  0.95232893  0.62947501  0.02509144    -0.20100
C2226       C  0.58273643  0.62892239  0.06880805    -0.21500
C2227       C  0.60699187  0.61659660  0.08805731    -0.09600
C2228       C  0.60799911  0.58420279  0.09195560     0.29300
C2229       C  0.58554067  0.56505675  0.07735489    -0.21500
C2230       C  0.56168117  0.57754139  0.05806002    -0.09600
C2231       C  0.56047211  0.60973305  0.05400535     0.29300
F2232       F  0.53764514  0.62281936  0.03573172    -0.20100
H2233       H  0.58005103  0.65334401  0.06520252     0.17600
H2234       H  0.58743541  0.54029306  0.08028988     0.17600
F2235       F  0.63059517  0.57098581  0.11042870    -0.20100
C2236       C  0.92221378  0.88724061  0.41307511    -0.21500
C2237       C  0.89038156  0.89278701  0.41039973    -0.09600
C2238       C  0.87997541  0.92241430  0.41973742     0.29300
C2239       C  0.89983919  0.94372219  0.43522845    -0.21500
C2240       C  0.93104057  0.93726175  0.43962219    -0.09600
C2241       C  0.94231923  0.90912455  0.42748515     0.29300
F2242       F  0.97252734  0.90218638  0.43074898    -0.20100
H2243       H  0.93177645  0.86599185  0.40372539     0.17600
H2244       H  0.89082399  0.96559901  0.44360162     0.17600
F2245       F  0.85091726  0.93157559  0.41305175    -0.20100
C2246       C  0.93384995  0.57965351  0.40890652    -0.21500
C2247       C  0.92036096  0.56045589  0.43399066    -0.09600
C2248       C  0.88894478  0.56371283  0.44136247     0.29300
C2249       C  0.87146334  0.58530216  0.42370115    -0.21500
C2250       C  0.88474235  0.60431044  0.39801878    -0.09600
C2251       C  0.91655057  0.60160206  0.39166321     0.29300
F2252       F  0.93111839  0.62042751  0.36884875    -0.20100
H2253       H  0.95826684  0.57854239  0.40337253     0.17600
H2254       H  0.84778770  0.58728416  0.43148271     0.17600
F2255       F  0.87509612  0.54645445  0.46610136    -0.20100
C2256       C  0.59225212  0.93264620  0.42690680    -0.21500
C2257       C  0.56589283  0.91961658  0.44252430    -0.09600
C2258       C  0.55946621  0.88801769  0.43753469     0.29300
C2259       C  0.57938513  0.86984054  0.41870094    -0.21500
C2260       C  0.60674579  0.88220512  0.40439117    -0.09600
C2261       C  0.61227515  0.91430231  0.40778211     0.29300
F2262       F  0.63724724  0.92795174  0.39280311    -0.20100
H2263       H  0.59761853  0.95698037  0.42981887     0.17600
H2264       H  0.57237530  0.84614843  0.41526723     0.17600
F2265       F  0.53383646  0.87423779  0.45095838    -0.20100
C2266       C  0.92069334  0.91733535  0.12513875    -0.21500
C2267       C  0.90022802  0.89550528  0.11054936    -0.09600
C2268       C  0.90247451  0.89047698  0.07520817     0.29300
C2269       C  0.92483487  0.90598128  0.05561582    -0.21500
C2270       C  0.94482042  0.92771029  0.07040474    -0.09600
C2271       C  0.94252473  0.93330850  0.10533520     0.29300
F2272       F  0.96130663  0.95447700  0.12038453    -0.20100
H2273       H  0.92001904  0.92306467  0.15164878     0.17600
H2274       H  0.92559911  0.90198398  0.02849649     0.17600
F2275       F  0.88286066  0.87054803  0.05946488    -0.20100
O2276       O  0.97899864  0.96137938  0.95433408    -0.80400
O2277       O  0.52987216  0.53399625  0.94525212    -0.80400
O2278       O  0.93192999  0.53173209  0.98454823    -0.80400
O2279       O  0.55032620  0.96760069  0.96929006    -0.80400
O2280       O  0.96772643  0.53676739  0.94553041    -0.80500
O2281       O  0.52361611  0.92489968  0.98046455    -0.80400
O2282       O  0.56617693  0.52843447  0.98209369    -0.80400
O2283       O  0.93846398  0.96952605  0.98729587    -0.80400
C2284       C  0.95041009  0.95803088  0.96058106     1.09300
C2285       C  0.55760576  0.53791488  0.95333309     1.09200
C2286       C  0.94037113  0.54062022  0.95499235     1.09300
C2287       C  0.54582377  0.93811615  0.96510400     1.09200
O2288       O  0.53389776  0.95680638  0.53739887    -0.80400
O2289       O  0.96863198  0.57151030  0.50844911    -0.80500
O2290       O  0.96713535  0.97574554  0.55478122    -0.80400
O2291       O  0.53786930  0.52874238  0.54664714    -0.80400
O2292       O  0.53103505  0.56677340  0.50993308    -0.80400
O2293       O  0.97548422  0.93775837  0.52092250    -0.80400
O2294       O  0.57753884  0.98301050  0.52888293    -0.80300
O2295       O  0.96302568  0.53739228  0.54922689    -0.80400
Co2296     Co  0.50666288  0.96246484  0.99386625     1.51500
Co2297     Co  0.99935497  0.54959151  0.47776105     1.51700
Co2298     Co  0.95283504  0.00357504  0.01864690     1.51600
Co2299     Co  0.54071870  0.49822646  0.50982732     1.51500
O2300       O  0.49621373  0.00709308  0.99954106    -1.42300
C2301       C  0.56296500  0.96109229  0.54351531     1.09200
C2302       C  0.95870220  0.56414425  0.53797173     1.09300
C2303       C  0.96453561  0.94748235  0.54852246     1.09300
C2304       C  0.54130185  0.55690511  0.53816038     1.09200
C2305       C  0.63019185  0.62307452  0.86864723     0.86200
C2306       C  0.66509873  0.61931753  0.87334379    -0.54000
C2307       C  0.68267991  0.64025228  0.85550034     0.09200
C2308       C  0.66402439  0.66271551  0.83412496     0.20100
C2309       C  0.62420763  0.65711022  0.87750876    -0.54700
C2310       C  0.64188963  0.67766367  0.85921140     0.09300
C2311       C  0.62590730  0.62141645  0.82972642    -0.54200
C2312       C  0.64375733  0.64202574  0.81195888     0.09800
H2313       H  0.67497309  0.60198840  0.88984222     0.14400
H2314       H  0.67827192  0.67968885  0.81946037     0.00100
H2315       H  0.60739934  0.66426234  0.89628004     0.14700
H2316       H  0.61146885  0.60502591  0.81638854     0.14500
C2317       C  0.62931727  0.86209580  0.88446855     0.86200
C2318       C  0.62365177  0.82673024  0.88621616    -0.54000
C2319       C  0.64365201  0.81018400  0.86722622     0.09200
C2320       C  0.66808160  0.82989904  0.84872311     0.20100
C2321       C  0.66318460  0.86607301  0.89545696    -0.54700
C2322       C  0.68346847  0.84909077  0.87685213     0.09300
C2323       C  0.62943297  0.86976516  0.84631528    -0.54200
C2324       C  0.64982661  0.85316972  0.82736189     0.09800
H2325       H  0.60630466  0.81492365  0.90144372     0.14400
H2326       H  0.68474440  0.81618398  0.83396624     0.00100
H2327       H  0.67039701  0.88069930  0.91635311     0.14700
H2328       H  0.61363523  0.88614893  0.83538852     0.14500
C2329       C  0.63578956  0.87458607  0.62262808     0.86200
C2330       C  0.67031531  0.88054982  0.61517478    -0.54000
C2331       C  0.68943683  0.86207428  0.63322991     0.09200
C2332       C  0.67263152  0.83869143  0.65638622     0.20100
C2333       C  0.63118037  0.83978376  0.61519513    -0.54700
C2334       C  0.65031005  0.82123288  0.63302400     0.09300
C2335       C  0.63272667  0.87698160  0.66154382    -0.54200
C2336       C  0.65199902  0.85822137  0.67945943     0.09800
H2337       H  0.67890724  0.89851413  0.59812502     0.14400
H2338       H  0.68898374  0.82356383  0.66971866     0.00100
H2339       H  0.61491137  0.82990762  0.59745720     0.14700
H2340       H  0.61633555  0.89210785  0.67365412     0.14500
C2341       C  0.62971602  0.63693500  0.60785533     0.86200
C2342       C  0.62751907  0.67239851  0.60335556    -0.54000
C2343       C  0.64712019  0.68872596  0.62359464     0.09200
C2344       C  0.66743913  0.66877180  0.64601475     0.20100
C2345       C  0.66415381  0.63023529  0.60129058    -0.54700
C2346       C  0.68388904  0.64713359  0.62124820     0.09300
C2347       C  0.62516458  0.63156140  0.64607233    -0.54200
C2348       C  0.64482978  0.64805632  0.66599195     0.09800
H2349       H  0.61212113  0.68429422  0.58647361     0.14400
H2350       H  0.68317374  0.68251515  0.66240330     0.00100
H2351       H  0.67211029  0.61413348  0.58225395     0.14700
H2352       H  0.60804733  0.61549650  0.65640328     0.14500
C2353       C  0.86600391  0.62747479  0.87735536     0.86200
C2354       C  0.87383953  0.66148562  0.88551461    -0.54000
C2355       C  0.85789256  0.68241353  0.86656817     0.09200
C2356       C  0.83553226  0.66729509  0.84113151     0.20100
C2357       C  0.83071752  0.62486023  0.88129623    -0.54700
C2358       C  0.81494507  0.64563291  0.86242741     0.09300
C2359       C  0.87114757  0.62469907  0.83867374    -0.54200
C2360       C  0.85514677  0.64547152  0.81977022     0.09800
H2361       H  0.89081942  0.66824796  0.90429750     0.14400
H2362       H  0.82243406  0.68399227  0.82565753     0.00100
H2363       H  0.81847322  0.60746322  0.89604235     0.14700
H2364       H  0.88538542  0.60716373  0.82719838     0.14500
C2365       C  0.87152830  0.63938040  0.61416245     0.86200
C2366       C  0.83740061  0.63205586  0.60673085    -0.54000
C2367       C  0.81716868  0.64793802  0.62648073     0.09200
C2368       C  0.83300647  0.66945330  0.65245446     0.20100
C2369       C  0.87447073  0.67483101  0.61114808    -0.54700
C2370       C  0.85476512  0.69059375  0.63159520     0.09300
C2371       C  0.87512659  0.63328348  0.65249174    -0.54200
C2372       C  0.85496658  0.64882090  0.67263289     0.09800
H2373       H  0.82997204  0.61637359  0.58686549     0.14400
H2374       H  0.81670945  0.68221525  0.66877339     0.00100
H2375       H  0.89107530  0.68695245  0.59529728     0.14700
H2376       H  0.89220218  0.61781634  0.66269762     0.14500
C2377       C  0.87661144  0.87672464  0.63153555     0.86200
C2378       C  0.88009877  0.84184864  0.62605452    -0.54000
C2379       C  0.85876311  0.82391460  0.64282627     0.09200
C2380       C  0.83627247  0.84253902  0.66454553     0.20100
C2381       C  0.84287817  0.88327485  0.62220616    -0.54700
C2382       C  0.82184819  0.86549847  0.63972412     0.09300
C2383       C  0.87763313  0.88029037  0.67055244    -0.54200
C2384       C  0.85692148  0.86197681  0.68782872     0.09800
H2385       H  0.89765350  0.83228652  0.60962556     0.14400
H2386       H  0.81923636  0.82811944  0.67870822     0.00100
H2387       H  0.83626801  0.90062656  0.60377878     0.14700
H2388       H  0.89316050  0.89548851  0.68401316     0.14500
C2389       C  0.86934899  0.86970351  0.89185546     0.86200
C2390       C  0.83489641  0.87052842  0.90155712    -0.54000
C2391       C  0.81642484  0.85187988  0.88228110     0.09200
C2392       C  0.83422416  0.83301556  0.85589372     0.20100
C2393       C  0.87716379  0.83502754  0.89539878    -0.54700
C2394       C  0.85885071  0.81589488  0.87619046     0.09300
C2395       C  0.87050206  0.87610927  0.85360665    -0.54200
C2396       C  0.85243848  0.85687395  0.83470131     0.09800
H2397       H  0.82578335  0.88392734  0.92237723     0.14400
H2398       H  0.81936124  0.81746099  0.84054809     0.00100
H2399       H  0.89547652  0.82635772  0.91126184     0.14700
H2400       H  0.88502721  0.89411872  0.84236082     0.14500
C2401       C  0.82751867  0.85475563  0.74254607    -0.21500
C2402       C  0.85575962  0.85976769  0.72554671    -0.09600
C2403       C  0.88288351  0.86199851  0.74488796     0.29300
C2404       C  0.88141236  0.86107553  0.78020743    -0.21500
C2405       C  0.85309329  0.85731624  0.79713888    -0.09600
C2406       C  0.82611439  0.85351230  0.77800979     0.29300
F2407       F  0.79828928  0.84965312  0.79346009    -0.20100
H2408       H  0.80631799  0.85225588  0.72859163     0.17600
H2409       H  0.90265646  0.86275874  0.79440788     0.17600
F2410       F  0.91104321  0.86388006  0.72984315    -0.20100
C2411       C  0.82894244  0.74131568  0.63966065    -0.21500
C2412       C  0.85611788  0.72474971  0.63523612    -0.09600
C2413       C  0.88444230  0.74112003  0.63461825     0.29300
C2414       C  0.88511510  0.77323584  0.63728087    -0.24200
C2415       C  0.85769672  0.78978268  0.64031398    -0.09600
C2416       C  0.82948109  0.77342552  0.64119107     0.29300
F2417       F  0.80222400  0.78828126  0.64211108    -0.20100
H2418       H  0.80693874  0.72967485  0.64146918     0.17600
H2419       H  0.90724705  0.78511038  0.63746723     0.17600
F2420       F  0.91162002  0.72616312  0.63291440    -0.20100
C2421       C  0.88292494  0.64484711  0.76402880    -0.21500
C2422       C  0.85506922  0.64561979  0.78213381    -0.09600
C2423       C  0.82723696  0.64688135  0.76411278     0.29300
C2424       C  0.82742645  0.64762728  0.72860981    -0.21500
C2425       C  0.85529346  0.64721065  0.71038551    -0.09600
C2426       C  0.88316828  0.64590885  0.72853153     0.29300
F2427       F  0.91074933  0.64696647  0.71217088    -0.20100
H2428       H  0.90460574  0.64422432  0.77746429     0.17600
H2429       H  0.80566233  0.64814354  0.71534701     0.17600
F2430       F  0.79977455  0.64649395  0.78073348    -0.20100
C2431       C  0.86082194  0.73493397  0.84022772    -0.21500
C2432       C  0.86137007  0.71658216  0.86967201    -0.09600
C2433       C  0.86343068  0.73126538  0.90146304     0.29300
C2434       C  0.86399948  0.76362817  0.90351121    -0.21500
C2435       C  0.86220569  0.78183661  0.87402375    -0.09600
C2436       C  0.86123122  0.76712985  0.84228021     0.29300
F2437       F  0.86074923  0.78388190  0.81309576    -0.20100
H2438       H  0.85987724  0.72430654  0.81542045     0.17600
H2439       H  0.86444745  0.77445719  0.92822513     0.17600
F2440       F  0.86304537  0.71447833  0.93062040    -0.20100
C2441       C  0.76705858  0.67406919  0.61906725    -0.21500
C2442       C  0.78314179  0.64649455  0.62200173    -0.09600
C2443       C  0.76638623  0.61838465  0.62140413     0.29300
C2444       C  0.73400105  0.61837453  0.61970392    -0.21500
C2445       C  0.71803647  0.64635722  0.61888639    -0.09600
C2446       C  0.73501406  0.67420568  0.61799224     0.29300
F2447       F  0.72066329  0.70171491  0.61579899    -0.20100
H2448       H  0.77936070  0.69574145  0.61707617     0.17600
H2449       H  0.72136817  0.59662142  0.62041079     0.17600
F2450       F  0.78116149  0.59112378  0.62383492    -0.20100
C2451       C  0.66107230  0.77283266  0.60140323    -0.21500
C2452       C  0.64913377  0.78730910  0.63028135    -0.09600
C2453       C  0.63556370  0.76932330  0.65622154     0.29300
C2454       C  0.63532750  0.73714768  0.65402202    -0.21500
C2455       C  0.64751536  0.72266458  0.62533614    -0.09600
C2456       C  0.66006520  0.74062493  0.59877924     0.29300
F2457       F  0.67181508  0.72695630  0.57073262    -0.20100
H2458       H  0.67122841  0.78650598  0.58102227     0.17600
H2459       H  0.62511283  0.72348626  0.67439229     0.17600
F2460       F  0.62156586  0.78288977  0.68301196    -0.20100
C2461       C  0.74089088  0.86033316  0.60405449    -0.21500
C2462       C  0.72331417  0.86585809  0.63336137    -0.09600
C2463       C  0.73830968  0.87336214  0.66374986     0.29300
C2464       C  0.77039848  0.87461512  0.66499868    -0.21500
C2465       C  0.78809801  0.86799131  0.63620045    -0.09600
C2466       C  0.77319651  0.86118246  0.60547115     0.29300
F2467       F  0.78980999  0.85382338  0.57746247    -0.20100
H2468       H  0.72960563  0.85421733  0.58052269     0.17600
H2469       H  0.78149110  0.88056858  0.68861585     0.17600
F2470       F  0.72188092  0.87941153  0.69229518    -0.20100
C2471       C  0.66041442  0.82952054  0.77060151    -0.21500
C2472       C  0.65244797  0.85558174  0.78955853    -0.09600
C2473       C  0.64645535  0.88320066  0.77190241     0.29300
C2474       C  0.64661471  0.88388177  0.73634747    -0.21500
C2475       C  0.65307234  0.85727792  0.71741307    -0.09600
C2476       C  0.66070102  0.83017447  0.73521019     0.29300
F2477       F  0.66745825  0.80365391  0.71895653    -0.20100
H2478       H  0.66573207  0.80797269  0.78289582     0.17600
H2479       H  0.64203078  0.90551664  0.72365793     0.17600
F2480       F  0.64129713  0.90985547  0.78876807    -0.20100
C2481       C  0.76624310  0.82276186  0.88203728    -0.21500
C2482       C  0.78228413  0.85096275  0.88516746    -0.09600
C2483       C  0.76541412  0.87829370  0.88856565     0.29300
C2484       C  0.73320939  0.87737598  0.88733770    -0.21500
C2485       C  0.71725760  0.84932326  0.88257039    -0.09600
C2486       C  0.73404833  0.82184829  0.88092722     0.29300
F2487       F  0.71938845  0.79406694  0.87832412    -0.20100
H2488       H  0.77868802  0.80137317  0.88011225     0.17600
H2489       H  0.72079213  0.89882456  0.88848492     0.17600
F2490       F  0.77999325  0.90614047  0.89082867    -0.20100
C2491       C  0.67218763  0.64577608  0.72121431    -0.21500
C2492       C  0.64432720  0.64620115  0.70338879    -0.09600
C2493       C  0.61629951  0.64508866  0.72148522     0.29300
C2494       C  0.61632889  0.64355459  0.75681692    -0.21500
C2495       C  0.64417650  0.64337434  0.77460375    -0.09600
C2496       C  0.67219038  0.64434785  0.75659544     0.29300
F2497       F  0.69950091  0.64290973  0.77307715    -0.20100
H2498       H  0.69399229  0.64605690  0.70771155     0.17600
H2499       H  0.59455434  0.64309561  0.77038318     0.17600
F2500       F  0.58890197  0.64655230  0.70519047    -0.20100
C2501       C  0.73184481  0.67016936  0.85996016    -0.21500
C2502       C  0.71656371  0.64154360  0.85672288    -0.09600
C2503       C  0.73377925  0.61451911  0.85422895     0.29300
C2504       C  0.76578590  0.61612653  0.85594380    -0.21500
C2505       C  0.78108396  0.64465171  0.86000722    -0.09600
C2506       C  0.76394464  0.67178421  0.86159246     0.29300
F2507       F  0.77809955  0.69963515  0.86592412    -0.20100
H2508       H  0.71886778  0.69123222  0.86194841     0.17600
H2509       H  0.77870372  0.59505340  0.85368260     0.17600
F2510       F  0.71974615  0.58671527  0.84916255    -0.20100
C2511       C  0.63235226  0.72916894  0.83402217    -0.21500
C2512       C  0.64023088  0.71144429  0.86243480    -0.09600
C2513       C  0.64876053  0.72623140  0.89265046     0.29300
C2514       C  0.64976024  0.75849625  0.89414656    -0.21500
C2515       C  0.64217197  0.77620503  0.86557979    -0.09600
C2516       C  0.63281980  0.76136074  0.83570475     0.29300
F2517       F  0.62324842  0.77791990  0.80857362    -0.20100
H2518       H  0.62566402  0.71798679  0.81058666     0.17600
H2519       H  0.65688197  0.76971797  0.91739281     0.17600
F2520       F  0.65727002  0.70949030  0.92013815    -0.20100
C2521       C  0.59991304  0.57714712  0.94593024    -0.21500
C2522       C  0.57790794  0.55718276  0.93147325    -0.09600
C2523       C  0.57254753  0.55893420  0.89647744     0.29300
C2524       C  0.58897856  0.58000788  0.87627610    -0.21500
C2525       C  0.61128788  0.60017675  0.89035331    -0.09600
C2526       C  0.61612808  0.59867952  0.92576706     0.29300
F2527       F  0.63635783  0.61834617  0.94098992    -0.20100
H2528       H  0.60367659  0.57695123  0.97309377     0.17600
H2529       H  0.58313600  0.58036764  0.84981072     0.17600
F2530       F  0.55101330  0.54042414  0.88168079    -0.20100
C2531       C  0.60318108  0.95029221  0.58733764    -0.21500
C2532       C  0.57911640  0.93980884  0.56655856    -0.09600
C2533       C  0.57198169  0.90811210  0.56588576     0.29300
C2534       C  0.58957583  0.88716691  0.58421235    -0.21500
C2535       C  0.61477506  0.89720069  0.60400775    -0.09600
C2536       C  0.62033025  0.92937259  0.60650355     0.29300
F2537       F  0.64286563  0.94059726  0.62699351    -0.20100
H2538       H  0.60877466  0.97470932  0.58864277     0.17600
H2539       H  0.58288085  0.86321333  0.58246083     0.17600
F2540       F  0.54887259  0.89705205  0.54605755    -0.20100
C2541       C  0.91793503  0.57101572  0.58182379    -0.21500
C2542       C  0.93771117  0.58439732  0.55725791    -0.09600
C2543       C  0.93465826  0.61584508  0.54959562     0.29300
C2544       C  0.91315667  0.63363572  0.56716277    -0.21500
C2545       C  0.89390988  0.62045843  0.59268779    -0.09600
C2546       C  0.89599267  0.58848615  0.59870774     0.29300
F2547       F  0.87689426  0.57399086  0.62130460    -0.20100
H2548       H  0.91880845  0.54656509  0.58749612     0.17600
H2549       H  0.91161029  0.65749645  0.55974639     0.17600
F2550       F  0.95233798  0.62947653  0.52508919    -0.20100
C2551       C  0.58274156  0.62891935  0.56880069    -0.21500
C2552       C  0.60699371  0.61659287  0.58805467    -0.09600
C2553       C  0.60799737  0.58419906  0.59195553     0.29300
C2554       C  0.58553810  0.56505408  0.57735411    -0.21500
C2555       C  0.56168144  0.57753955  0.55805542    -0.09600
C2556       C  0.56047654  0.60973113  0.55399733     0.29300
F2557       F  0.53765290  0.62281859  0.53571961    -0.20100
H2558       H  0.58005940  0.65334091  0.56519110     0.17600
H2559       H  0.58742998  0.54029034  0.58029177     0.17600
F2560       F  0.63059069  0.57098111  0.61043184    -0.20100
C2561       C  0.92222175  0.88723360  0.91308294    -0.21500
C2562       C  0.89039108  0.89278571  0.91039931    -0.09600
C2563       C  0.87998884  0.92241645  0.91972851     0.29300
C2564       C  0.89985374  0.94372338  0.93521926    -0.21500
C2565       C  0.93105300  0.93725774  0.93962141    -0.09600
C2566       C  0.94232865  0.90911625  0.92749307     0.29300
F2567       F  0.97253465  0.90217271  0.93076628    -0.20100
H2568       H  0.93178241  0.86598160  0.90373972     0.17600
H2569       H  0.89084108  0.96560311  0.94358648     0.17600
F2570       F  0.85093277  0.93158061  0.91303656    -0.20100
C2571       C  0.93386037  0.57965303  0.90890265    -0.21500
C2572       C  0.92036927  0.56045696  0.93398708    -0.09600
C2573       C  0.88895360  0.56371731  0.94135870     0.29300
C2574       C  0.87147440  0.58530756  0.92369618    -0.21500
C2575       C  0.88475494  0.60431294  0.89801209    -0.09600
C2576       C  0.91656312  0.60160250  0.89165794     0.29300
F2577       F  0.93113307  0.62042685  0.86884400    -0.20100
H2578       H  0.95827724  0.57853993  0.90336940     0.17600
H2579       H  0.84779937  0.58729305  0.93147861     0.17600
F2580       F  0.87510338  0.54646172  0.96609886    -0.20100
C2581       C  0.59225152  0.93264967  0.92689998    -0.21500
C2582       C  0.56590046  0.91961787  0.94253196    -0.09600
C2583       C  0.55948126  0.88801542  0.93755770     0.29300
C2584       C  0.57939858  0.86983799  0.91872267    -0.21500
C2585       C  0.60675025  0.88220587  0.90439543    -0.09600
C2586       C  0.61227321  0.91430526  0.90777423     0.29300
F2587       F  0.63723798  0.92795628  0.89278212    -0.20100
H2588       H  0.59761241  0.95698621  0.92980110     0.17600
H2589       H  0.57239452  0.84614258  0.91530416     0.17600
F2590       F  0.53386083  0.87423179  0.95099872    -0.20100
C2591       C  0.92067804  0.91734918  0.62513654    -0.21500
C2592       C  0.90021567  0.89551559  0.61054879    -0.09600
C2593       C  0.90246507  0.89048296  0.57520854     0.29300
C2594       C  0.92482700  0.90598484  0.55561600    -0.21500
C2595       C  0.94481095  0.92771620  0.57040346    -0.09600
C2596       C  0.94251101  0.93331994  0.60533266     0.29300
F2597       F  0.96129022  0.95449166  0.62038060    -0.20100
H2598       H  0.91999996  0.92308283  0.65164519     0.17600
H2599       H  0.92559389  0.90198353  0.52849760     0.17600
F2600       F  0.88285333  0.87055117  0.55946637    -0.20100
loop_ 
_geom_bond_atom_site_label_1 
_geom_bond_atom_site_label_2 
_geom_bond_distance 
_geom_bond_site_symmetry_2 
_ccdc_geom_bond_type 
O1            C9   1.270       .  A
O1        Co1321   1.973       .  S
O2           C10   1.256       .  A
O2        Co1647   1.968   1_455  S
O3           C11   1.275       .  A
O3         Co673   2.038       .  S
O4           C12   1.301       .  A
O4         Co999   2.125       .  S
O5           C11   1.257       .  A
O5         Co347   1.952       .  S
O6           C12   1.264       .  A
O6          Co21   1.875       .  S
O7           C10   1.264       .  A
O7         Co349   2.014   1_545  S
O8            C9   1.278       .  A
O8          Co23   2.022       .  S
C9          C290   1.480       .  S
C10         C247   1.475       .  S
C11         C297   1.485       .  S
C12         C307   1.488       .  S
O13          C26   1.297       .  A
O13        Co346   2.105   1_554  S
O14          C27   1.276       .  A
O14         Co22   2.044   1_554  S
O15          C28   1.254       .  A
O15        Co348   1.971       .  S
O16          C29   1.270       .  A
O16         Co24   1.972   1_545  S
O17          C29   1.275       .  A
O17       Co1322   2.012   1_454  S
O18          C28   1.261       .  A
O18       Co1646   2.010   1_554  S
O19          C26   1.267       .  A
O19        Co674   1.897       .  S
O20          C27   1.257       .  A
O20        Co998   1.949       .  S
Co21       O1301   1.973   1_455  S
Co21        O338   2.105       .  S
Co21       O1643   2.010   1_455  S
Co21         O25   2.007   1_455  S
Co22       O1627   1.968       .  S
Co22        O330   1.952       .  S
Co22       O1317   2.012   1_556  S
Co22       O2300   2.031       .  S
Co23        O653   2.038       .  S
Co23        O340   1.971       .  S
Co23        O995   1.949       .  S
Co23       O1325   2.028       .  S
Co24        O979   2.125   1_554  S
Co24        O332   2.014   1_564  S
Co24        O669   1.897       .  S
Co24       O1000   2.020   1_464  S
O25       Co2297   2.031       .  S
O25       Co1323   2.028       .  S
O25        Co999   2.020   1_655  S
C26         C257   1.479       .  S
C27         C267   1.484       .  S
C28         C320   1.474       .  S
C29         C280   1.478       .  S
C30          C31   1.539       .  S
C30          C36   1.548       .  S
C30          C34   1.543       .  S
C30         C250   1.532       .  S
C31          H38   1.086       .  S
C31          C32   1.366       .  D
C32          C33   1.529       .  S
C32         C227   1.473       .  S
C33          C37   1.527       .  S
C33          C35   1.528       .  S
C33          H39   1.111       .  S
C34          H40   1.086       .  S
C34          C35   1.367       .  D
C35         C237   1.473       .  S
C36          H41   1.080       .  S
C36          C37   1.362       .  D
C37         C220   1.473       .  S
C42          C43   1.549       .  S
C42          C48   1.538       .  S
C42          C46   1.543       .  S
C42         C310   1.537       .  S
C43          H50   1.081       .  S
C43          C44   1.359       .  D
C44          C45   1.531       .  S
C44         C240   1.475       .  S
C45          C49   1.542       .  S
C45          C47   1.538       .  S
C45          H51   1.108       .  S
C46          H52   1.086       .  S
C46          C47   1.369       .  D
C47         C210   1.486       .  S
C48          H53   1.085       .  S
C48          C49   1.370       .  D
C49         C197   1.496       .  S
C54          C55   1.544       .  S
C54          C60   1.542       .  S
C54          C58   1.548       .  S
C54         C260   1.537       .  S
C55          H62   1.086       .  S
C55          C56   1.364       .  D
C56          C57   1.533       .  S
C56         C187   1.478       .  S
C57          C61   1.539       .  S
C57          C59   1.534       .  S
C57          H63   1.107       .  S
C58          H64   1.081       .  S
C58          C59   1.361       .  D
C59         C177   1.475       .  S
C60          H65   1.086       .  S
C60          C61   1.372       .  D
C61         C200   1.497       .  S
C66          C67   1.551       .  S
C66          C72   1.534       .  S
C66          C70   1.549       .  S
C66         C277   1.532       .  S
C67          H74   1.081       .  S
C67          C68   1.362       .  D
C68          C69   1.527       .  S
C68         C180   1.473       .  S
C69          C73   1.531       .  S
C69          C71   1.538       .  S
C69          H75   1.111       .  S
C70          H76   1.086       .  S
C70          C71   1.372       .  D
C71         C170   1.486       .  S
C72          H77   1.086       .  S
C72          C73   1.360       .  D
C73         C217   1.475       .  S
C78          C79   1.543       .  S
C78          C84   1.545       .  S
C78          C82   1.542       .  S
C78         C300   1.536       .  S
C79          H86   1.086       .  S
C79          C80   1.371       .  D
C80          C81   1.540       .  S
C80         C157   1.492       .  S
C81          C85   1.534       .  S
C81          C83   1.530       .  S
C81          H87   1.110       .  S
C82          H88   1.081       .  S
C82          C83   1.361       .  D
C83         C230   1.474       .  S
C84          H89   1.086       .  S
C84          C85   1.367       .  D
C85         C147   1.483       .  S
C90          C91   1.540       .  S
C90          C96   1.541       .  S
C90          C94   1.544       .  S
C90         C270   1.535       .  S
C91          H98   1.086       .  S
C91          C92   1.367       .  D
C92          C93   1.545       .  S
C92         C167   1.489       .  S
C93          C97   1.540       .  S
C93          C95   1.537       .  S
C93          H99   1.110       .  S
C94         H100   1.080       .  S
C94          C95   1.365       .  D
C95         C137   1.488       .  S
C96         H101   1.085       .  S
C96          C97   1.366       .  D
C97         C150   1.489       .  S
C102        C103   1.538       .  S
C102        C108   1.547       .  S
C102        C106   1.543       .  S
C102        C317   1.534       .  S
C103        H110   1.086       .  S
C103        C104   1.365       .  D
C104        C105   1.536       .  S
C104        C140   1.483       .  S
C105        C109   1.532       .  S
C105        C107   1.535       .  S
C105        H111   1.107       .  S
C106        H112   1.086       .  S
C106        C107   1.367       .  D
C107        C190   1.479       .  S
C108        H113   1.078       .  S
C108        C109   1.366       .  D
C109        C127   1.489       .  S
C114        C115   1.543       .  S
C114        C120   1.531       .  S
C114        C118   1.552       .  S
C114        C287   1.534       .  S
C115        H122   1.084       .  S
C115        C116   1.366       .  D
C116        C117   1.538       .  S
C116        C207   1.486       .  S
C117        C121   1.533       .  S
C117        C119   1.537       .  S
C117        H123   1.109       .  S
C118        H124   1.085       .  S
C118        C119   1.373       .  D
C119        C160   1.488       .  S
C120        H125   1.087       .  S
C120        C121   1.362       .  D
C121        C130   1.480       .  S
C126        C127   1.407       .  A
C126        C131   1.399       .  A
C126        H133   1.079       .  S
C127        C128   1.409       .  A
C128        C129   1.393       .  A
C128        F135   1.357       .  S
C129        C130   1.402       .  A
C129        H134   1.083       .  S
C130        C131   1.404       .  A
C131        F132   1.357       .  S
C136        C137   1.402       .  A
C136        C141   1.393       .  A
C136        H143   1.075       .  S
C137        C138   1.410       .  A
C138        C139   1.396       .  A
C138        F145   1.357       .  S
C139        C140   1.405       .  A
C139        H144   1.083       .  S
C140        C141   1.406       .  A
C141        F142   1.357       .  S
C146        C147   1.402       .  A
C146        C151   1.399       .  A
C146        H153   1.083       .  S
C147        C148   1.407       .  A
C148        C149   1.399       .  A
C148        F155   1.357       .  S
C149        C150   1.404       .  A
C149        H154   1.083       .  S
C150        C151   1.411       .  A
C151        F152   1.357       .  S
C156        C157   1.404       .  A
C156        C161   1.398       .  A
C156        H163   1.083       .  S
C157        C158   1.410       .  A
C158        C159   1.405       .  A
C158        F165   1.357       .  S
C159        C160   1.405       .  A
C159        H164   1.083       .  S
C160        C161   1.407       .  A
C161        F162   1.357       .  S
C166        C167   1.399       .  A
C166        C171   1.392       .  A
C166        H173   1.075       .  S
C167        C168   1.409       .  A
C168        C169   1.408       .  A
C168        F175   1.357       .  S
C169        C170   1.407       .  A
C169        H174   1.083       .  S
C170        C171   1.404       .  A
C171        F172   1.357       .  S
C176        C177   1.403       .  A
C176        C181   1.400       .  A
C176        H183   1.083       .  S
C177        C178   1.404       .  A
C178        C179   1.397       .  A
C178        F185   1.356       .  S
C179        C180   1.401       .  A
C179        H184   1.084       .  S
C180        C181   1.403       .  A
C181        F182   1.357       .  S
C186        C187   1.404       .  A
C186        C191   1.404       .  A
C186        H193   1.083       .  S
C187        C188   1.403       .  A
C188        C189   1.395       .  A
C188        F195   1.357       .  S
C189        C190   1.400       .  A
C189        H194   1.081       .  S
C190        C191   1.406       .  A
C191        F192   1.357       .  S
C196        C197   1.404       .  A
C196        C201   1.395       .  A
C196        H203   1.079       .  S
C197        C198   1.410       .  A
C198        C199   1.401       .  A
C198        F205   1.357       .  S
C199        C200   1.407       .  A
C199        H204   1.082       .  S
C200        C201   1.410       .  A
C201        F202   1.354       .  S
C206        C207   1.403       .  A
C206        C211   1.399       .  A
C206        H213   1.083       .  S
C207        C208   1.409       .  A
C208        C209   1.399       .  A
C208        F215   1.357       .  S
C209        C210   1.403       .  A
C209        H214   1.083       .  S
C210        C211   1.408       .  A
C211        F212   1.357       .  S
C216        C217   1.403       .  A
C216        C221   1.395       .  A
C216        H223   1.083       .  S
C217        C218   1.407       .  A
C218        C219   1.393       .  A
C218        F225   1.357       .  S
C219        C220   1.401       .  A
C219        H224   1.083       .  S
C220        C221   1.405       .  A
C221        F222   1.357       .  S
C226        C227   1.404       .  A
C226        C231   1.396       .  A
C226        H233   1.083       .  S
C227        C228   1.403       .  A
C228        C229   1.392       .  A
C228        F235   1.358       .  S
C229        C230   1.404       .  A
C229        H234   1.083       .  S
C230        C231   1.403       .  A
C231        F232   1.357       .  S
C236        C237   1.402       .  A
C236        C241   1.397       .  A
C236        H243   1.084       .  S
C237        C238   1.403       .  A
C238        C239   1.400       .  A
C238        F245   1.357       .  S
C239        C240   1.403       .  A
C239        H244   1.083       .  S
C240        C241   1.403       .  A
C241        F242   1.356       .  S
C246        C247   1.404       .  A
C246        C251   1.401       .  A
C246        H253   1.084       .  S
C247        C248   1.402       .  A
C248        C249   1.394       .  A
C248        F255   1.358       .  S
C249        C250   1.412       .  A
C249        H254   1.075       .  S
C250        C251   1.414       .  A
C251        F252   1.358       .  S
C256        C257   1.402       .  A
C256        C261   1.403       .  A
C256        H263   1.083       .  S
C257        C258   1.404       .  A
C258        C259   1.397       .  A
C258        F265   1.358       .  S
C259        C260   1.411       .  A
C259        H264   1.076       .  S
C260        C261   1.415       .  A
C261        F262   1.358       .  S
C266        C267   1.407       .  A
C266        C271   1.395       .  A
C266        H273   1.083       .  S
C267        C268   1.403       .  A
C268        C269   1.402       .  A
C268        F275   1.357       .  S
C269        C270   1.416       .  A
C269        H274   1.076       .  S
C270        C271   1.409       .  A
C271        F272   1.358       .  S
C276        C277   1.412       .  A
C276        C281   1.397       .  A
C276        H283   1.076       .  S
C277        C278   1.413       .  A
C278        C279   1.398       .  A
C278        F285   1.358       .  S
C279        C280   1.403       .  A
C279        H284   1.083       .  S
C280        C281   1.405       .  A
C281        F282   1.358       .  S
C286        C287   1.411       .  A
C286        C291   1.403       .  A
C286        H293   1.082       .  S
C287        C288   1.418       .  A
C288        C289   1.398       .  A
C288        F295   1.356       .  S
C289        C290   1.399       .  A
C289        H294   1.084       .  S
C290        C291   1.406       .  A
C291        F292   1.357       .  S
C296        C297   1.408       .  A
C296        C301   1.398       .  A
C296        H303   1.083       .  S
C297        C298   1.403       .  A
C298        C299   1.400       .  A
C298        F305   1.358       .  S
C299        C300   1.416       .  A
C299        H304   1.076       .  S
C300        C301   1.409       .  A
C301        F302   1.358       .  S
C306        C307   1.405       .  A
C306        C311   1.406       .  A
C306        H313   1.083       .  S
C307        C308   1.408       .  A
C308        C309   1.393       .  A
C308        F315   1.358       .  S
C309        C310   1.409       .  A
C309        H314   1.076       .  S
C310        C311   1.415       .  A
C311        F312   1.357       .  S
C316        C317   1.414       .  A
C316        C321   1.397       .  A
C316        H323   1.075       .  S
C317        C318   1.414       .  A
C318        C319   1.398       .  A
C318        F325   1.358       .  S
C319        C320   1.401       .  A
C319        H324   1.084       .  S
C320        C321   1.402       .  A
C321        F322   1.358       .  S
O326        C334   1.270       .  A
O326      Co1646   1.973       .  S
O327        C335   1.256       .  A
O327      Co1322   1.968   1_455  S
O328        C336   1.275       .  A
O328       Co998   2.038   1_556  S
O329        C337   1.301       .  A
O329       Co674   2.125   1_556  S
O330        C336   1.257       .  A
O331        C337   1.264       .  A
O331       Co346   1.875       .  S
O332        C335   1.264       .  A
O333        C334   1.278       .  A
O333       Co348   2.022   1_556  S
C334        C615   1.480       .  S
C335        C572   1.475       .  S
C336        C622   1.485       .  S
C337        C632   1.488       .  S
O338        C351   1.297       .  A
O339        C352   1.276       .  A
O339       Co347   2.044       .  S
O340        C353   1.254       .  A
O341        C354   1.270       .  A
O341       Co349   1.972   1_545  S
O342        C354   1.275       .  A
O342      Co1647   2.012   1_455  S
O343        C353   1.261       .  A
O343      Co1321   2.010       .  S
O344        C351   1.267       .  A
O344       Co999   1.897       .  S
O345        C352   1.257       .  A
O345       Co673   1.949       .  S
Co346      O1626   1.973   1_455  S
Co346      O1318   2.010   1_456  S
Co346       O350   2.007   1_455  S
Co347      O1302   1.968       .  S
Co347      O1642   2.012       .  S
Co347      O1975   2.031       .  S
Co348       O978   2.038   1_554  S
Co348       O670   1.949       .  S
Co348      O1650   2.028   1_554  S
Co349       O654   2.125       .  S
Co349       O994   1.897       .  S
Co349       O675   2.020   1_465  S
O350      Co1972   2.031       .  S
O350      Co1648   2.028   1_556  S
O350       Co674   2.020   1_656  S
C351        C582   1.479       .  S
C352        C592   1.484       .  S
C353        C645   1.474       .  S
C354        C605   1.479       .  S
C355        C356   1.539       .  S
C355        C361   1.548       .  S
C355        C359   1.543       .  S
C355        C575   1.532       .  S
C356        H363   1.086       .  S
C356        C357   1.366       .  D
C357        C358   1.529       .  S
C357        C552   1.473       .  S
C358        C362   1.527       .  S
C358        C360   1.528       .  S
C358        H364   1.111       .  S
C359        H365   1.086       .  S
C359        C360   1.367       .  D
C360        C562   1.473       .  S
C361        H366   1.080       .  S
C361        C362   1.362       .  D
C362        C545   1.473       .  S
C367        C368   1.549       .  S
C367        C373   1.538       .  S
C367        C371   1.543       .  S
C367        C635   1.537       .  S
C368        H375   1.081       .  S
C368        C369   1.359       .  D
C369        C370   1.531       .  S
C369        C565   1.475       .  S
C370        C374   1.543       .  S
C370        C372   1.538       .  S
C370        H376   1.108       .  S
C371        H377   1.086       .  S
C371        C372   1.369       .  D
C372        C535   1.486       .  S
C373        H378   1.085       .  S
C373        C374   1.370       .  D
C374        C522   1.496       .  S
C379        C380   1.544       .  S
C379        C385   1.542       .  S
C379        C383   1.548       .  S
C379        C585   1.537       .  S
C380        H387   1.086       .  S
C380        C381   1.364       .  D
C381        C382   1.533       .  S
C381        C512   1.478       .  S
C382        C386   1.539       .  S
C382        C384   1.534       .  S
C382        H388   1.107       .  S
C383        H389   1.081       .  S
C383        C384   1.361       .  D
C384        C502   1.475       .  S
C385        H390   1.086       .  S
C385        C386   1.372       .  D
C386        C525   1.497       .  S
C391        C392   1.551       .  S
C391        C397   1.534       .  S
C391        C395   1.549       .  S
C391        C602   1.532       .  S
C392        H399   1.081       .  S
C392        C393   1.362       .  D
C393        C394   1.527       .  S
C393        C505   1.473       .  S
C394        C398   1.531       .  S
C394        C396   1.538       .  S
C394        H400   1.111       .  S
C395        H401   1.086       .  S
C395        C396   1.372       .  D
C396        C495   1.486       .  S
C397        H402   1.086       .  S
C397        C398   1.360       .  D
C398        C542   1.475       .  S
C403        C404   1.543       .  S
C403        C409   1.545       .  S
C403        C407   1.542       .  S
C403        C625   1.536       .  S
C404        H411   1.086       .  S
C404        C405   1.371       .  D
C405        C406   1.540       .  S
C405        C482   1.492       .  S
C406        C410   1.534       .  S
C406        C408   1.530       .  S
C406        H412   1.110       .  S
C407        H413   1.081       .  S
C407        C408   1.361       .  D
C408        C555   1.474       .  S
C409        H414   1.086       .  S
C409        C410   1.367       .  D
C410        C472   1.483       .  S
C415        C416   1.541       .  S
C415        C421   1.541       .  S
C415        C419   1.544       .  S
C415        C595   1.535       .  S
C416        H423   1.086       .  S
C416        C417   1.367       .  D
C417        C418   1.545       .  S
C417        C492   1.489       .  S
C418        C422   1.540       .  S
C418        C420   1.537       .  S
C418        H424   1.110       .  S
C419        H425   1.080       .  S
C419        C420   1.365       .  D
C420        C462   1.488       .  S
C421        H426   1.085       .  S
C421        C422   1.366       .  D
C422        C475   1.489       .  S
C427        C428   1.538       .  S
C427        C433   1.547       .  S
C427        C431   1.543       .  S
C427        C642   1.534       .  S
C428        H435   1.086       .  S
C428        C429   1.365       .  D
C429        C430   1.536       .  S
C429        C465   1.483       .  S
C430        C434   1.532       .  S
C430        C432   1.535       .  S
C430        H436   1.107       .  S
C431        H437   1.086       .  S
C431        C432   1.367       .  D
C432        C515   1.479       .  S
C433        H438   1.078       .  S
C433        C434   1.366       .  D
C434        C452   1.489       .  S
C439        C440   1.543       .  S
C439        C445   1.531       .  S
C439        C443   1.552       .  S
C439        C612   1.534       .  S
C440        H447   1.084       .  S
C440        C441   1.366       .  D
C441        C442   1.538       .  S
C441        C532   1.486       .  S
C442        C446   1.533       .  S
C442        C444   1.537       .  S
C442        H448   1.109       .  S
C443        H449   1.085       .  S
C443        C444   1.373       .  D
C444        C485   1.488       .  S
C445        H450   1.087       .  S
C445        C446   1.362       .  D
C446        C455   1.480       .  S
C451        C452   1.407       .  A
C451        C456   1.399       .  A
C451        H458   1.079       .  S
C452        C453   1.409       .  A
C453        C454   1.393       .  A
C453        F460   1.357       .  S
C454        C455   1.402       .  A
C454        H459   1.083       .  S
C455        C456   1.404       .  A
C456        F457   1.357       .  S
C461        C462   1.402       .  A
C461        C466   1.393       .  A
C461        H468   1.075       .  S
C462        C463   1.410       .  A
C463        C464   1.396       .  A
C463        F470   1.357       .  S
C464        C465   1.405       .  A
C464        H469   1.083       .  S
C465        C466   1.406       .  A
C466        F467   1.357       .  S
C471        C472   1.402       .  A
C471        C476   1.399       .  A
C471        H478   1.083       .  S
C472        C473   1.407       .  A
C473        C474   1.399       .  A
C473        F480   1.357       .  S
C474        C475   1.404       .  A
C474        H479   1.083       .  S
C475        C476   1.411       .  A
C476        F477   1.357       .  S
C481        C482   1.404       .  A
C481        C486   1.398       .  A
C481        H488   1.083       .  S
C482        C483   1.410       .  A
C483        C484   1.405       .  A
C483        F490   1.357       .  S
C484        C485   1.405       .  A
C484        H489   1.083       .  S
C485        C486   1.407       .  A
C486        F487   1.357       .  S
C491        C492   1.399       .  A
C491        C496   1.392       .  A
C491        H498   1.075       .  S
C492        C493   1.409       .  A
C493        C494   1.408       .  A
C493        F500   1.357       .  S
C494        C495   1.407       .  A
C494        H499   1.083       .  S
C495        C496   1.404       .  A
C496        F497   1.357       .  S
C501        C502   1.403       .  A
C501        C506   1.400       .  A
C501        H508   1.083       .  S
C502        C503   1.404       .  A
C503        C504   1.397       .  A
C503        F510   1.356       .  S
C504        C505   1.401       .  A
C504        H509   1.084       .  S
C505        C506   1.403       .  A
C506        F507   1.357       .  S
C511        C512   1.404       .  A
C511        C516   1.404       .  A
C511        H518   1.083       .  S
C512        C513   1.403       .  A
C513        C514   1.395       .  A
C513        F520   1.357       .  S
C514        C515   1.400       .  A
C514        H519   1.081       .  S
C515        C516   1.406       .  A
C516        F517   1.357       .  S
C521        C522   1.404       .  A
C521        C526   1.395       .  A
C521        H528   1.079       .  S
C522        C523   1.410       .  A
C523        C524   1.401       .  A
C523        F530   1.357       .  S
C524        C525   1.407       .  A
C524        H529   1.082       .  S
C525        C526   1.410       .  A
C526        F527   1.354       .  S
C531        C532   1.403       .  A
C531        C536   1.399       .  A
C531        H538   1.083       .  S
C532        C533   1.409       .  A
C533        C534   1.399       .  A
C533        F540   1.357       .  S
C534        C535   1.403       .  A
C534        H539   1.083       .  S
C535        C536   1.408       .  A
C536        F537   1.357       .  S
C541        C542   1.403       .  A
C541        C546   1.395       .  A
C541        H548   1.083       .  S
C542        C543   1.407       .  A
C543        C544   1.393       .  A
C543        F550   1.357       .  S
C544        C545   1.401       .  A
C544        H549   1.083       .  S
C545        C546   1.405       .  A
C546        F547   1.357       .  S
C551        C552   1.404       .  A
C551        C556   1.396       .  A
C551        H558   1.083       .  S
C552        C553   1.403       .  A
C553        C554   1.392       .  A
C553        F560   1.358       .  S
C554        C555   1.404       .  A
C554        H559   1.083       .  S
C555        C556   1.403       .  A
C556        F557   1.357       .  S
C561        C562   1.402       .  A
C561        C566   1.397       .  A
C561        H568   1.084       .  S
C562        C563   1.403       .  A
C563        C564   1.400       .  A
C563        F570   1.357       .  S
C564        C565   1.403       .  A
C564        H569   1.083       .  S
C565        C566   1.403       .  A
C566        F567   1.356       .  S
C571        C572   1.404       .  A
C571        C576   1.401       .  A
C571        H578   1.084       .  S
C572        C573   1.402       .  A
C573        C574   1.394       .  A
C573        F580   1.358       .  S
C574        C575   1.412       .  A
C574        H579   1.075       .  S
C575        C576   1.414       .  A
C576        F577   1.358       .  S
C581        C582   1.402       .  A
C581        C586   1.403       .  A
C581        H588   1.083       .  S
C582        C583   1.404       .  A
C583        C584   1.397       .  A
C583        F590   1.358       .  S
C584        C585   1.411       .  A
C584        H589   1.076       .  S
C585        C586   1.415       .  A
C586        F587   1.358       .  S
C591        C592   1.407       .  A
C591        C596   1.395       .  A
C591        H598   1.083       .  S
C592        C593   1.403       .  A
C593        C594   1.402       .  A
C593        F600   1.357       .  S
C594        C595   1.416       .  A
C594        H599   1.076       .  S
C595        C596   1.409       .  A
C596        F597   1.358       .  S
C601        C602   1.412       .  A
C601        C606   1.397       .  A
C601        H608   1.076       .  S
C602        C603   1.413       .  A
C603        C604   1.398       .  A
C603        F610   1.358       .  S
C604        C605   1.403       .  A
C604        H609   1.083       .  S
C605        C606   1.405       .  A
C606        F607   1.358       .  S
C611        C612   1.411       .  A
C611        C616   1.403       .  A
C611        H618   1.082       .  S
C612        C613   1.418       .  A
C613        C614   1.398       .  A
C613        F620   1.356       .  S
C614        C615   1.399       .  A
C614        H619   1.084       .  S
C615        C616   1.406       .  A
C616        F617   1.357       .  S
C621        C622   1.408       .  A
C621        C626   1.398       .  A
C621        H628   1.083       .  S
C622        C623   1.403       .  A
C623        C624   1.400       .  A
C623        F630   1.358       .  S
C624        C625   1.416       .  A
C624        H629   1.076       .  S
C625        C626   1.409       .  A
C626        F627   1.358       .  S
C631        C632   1.405       .  A
C631        C636   1.406       .  A
C631        H638   1.083       .  S
C632        C633   1.408       .  A
C633        C634   1.393       .  A
C633        F640   1.358       .  S
C634        C635   1.409       .  A
C634        H639   1.076       .  S
C635        C636   1.415       .  A
C636        F637   1.357       .  S
C641        C642   1.414       .  A
C641        C646   1.397       .  A
C641        H648   1.075       .  S
C642        C643   1.414       .  A
C643        C644   1.398       .  A
C643        F650   1.358       .  S
C644        C645   1.401       .  A
C644        H649   1.084       .  S
C645        C646   1.402       .  A
C646        F647   1.358       .  S
O651        C659   1.270       .  A
O651      Co1971   1.973       .  S
O652        C660   1.256       .  A
O652      Co2297   1.968   1_455  S
O653        C661   1.275       .  A
O654        C662   1.301       .  A
O655        C661   1.257       .  A
O655       Co997   1.952       .  S
O656        C662   1.264       .  A
O656       Co671   1.875       .  S
O657        C660   1.264       .  A
O657       Co999   2.014       .  S
O658        C659   1.278       .  A
O658       Co673   2.022   1_565  S
C659        C940   1.480       .  S
C660        C897   1.475       .  S
C661        C947   1.485       .  S
C662        C957   1.488       .  S
O663        C676   1.297       .  A
O663       Co996   2.105   1_554  S
O664        C677   1.276       .  A
O664       Co672   2.044   1_554  S
O665        C678   1.254       .  A
O665       Co998   1.971   1_565  S
O666        C679   1.270       .  A
O666       Co674   1.972       .  S
O667        C679   1.275       .  A
O667      Co1972   2.012   1_454  S
O668        C678   1.261       .  A
O668      Co2296   2.010   1_554  S
O669        C676   1.267       .  A
O670        C677   1.257       .  A
Co671      O1951   1.973   1_455  S
Co671       O988   2.105       .  S
Co671      O2293   2.010   1_455  S
Co671       O675   2.007   1_465  S
Co672      O2277   1.968       .  S
Co672       O980   1.952       .  S
Co672      O1967   2.012   1_556  S
Co672      O1650   2.031       .  S
Co673       O990   1.971   1_545  S
Co673      O1975   2.028       .  S
Co674       O982   2.014   1_554  S
O675      Co1647   2.031       .  S
O675      Co1973   2.028       .  S
C676        C907   1.479       .  S
C677        C917   1.484       .  S
C678        C970   1.474       .  S
C679        C930   1.478       .  S
C680        C681   1.539       .  S
C680        C686   1.548       .  S
C680        C684   1.543       .  S
C680        C900   1.532       .  S
C681        H688   1.086       .  S
C681        C682   1.366       .  D
C682        C683   1.529       .  S
C682        C877   1.473       .  S
C683        C687   1.527       .  S
C683        C685   1.528       .  S
C683        H689   1.111       .  S
C684        H690   1.086       .  S
C684        C685   1.367       .  D
C685        C887   1.473       .  S
C686        H691   1.080       .  S
C686        C687   1.362       .  D
C687        C870   1.473       .  S
C692        C693   1.549       .  S
C692        C698   1.538       .  S
C692        C696   1.543       .  S
C692        C960   1.537       .  S
C693        H700   1.081       .  S
C693        C694   1.359       .  D
C694        C695   1.531       .  S
C694        C890   1.475       .  S
C695        C699   1.542       .  S
C695        C697   1.538       .  S
C695        H701   1.108       .  S
C696        H702   1.086       .  S
C696        C697   1.369       .  D
C697        C860   1.486       .  S
C698        H703   1.085       .  S
C698        C699   1.370       .  D
C699        C847   1.496       .  S
C704        C705   1.544       .  S
C704        C710   1.542       .  S
C704        C708   1.548       .  S
C704        C910   1.537       .  S
C705        H712   1.086       .  S
C705        C706   1.364       .  D
C706        C707   1.533       .  S
C706        C837   1.478       .  S
C707        C711   1.539       .  S
C707        C709   1.534       .  S
C707        H713   1.107       .  S
C708        H714   1.081       .  S
C708        C709   1.361       .  D
C709        C827   1.475       .  S
C710        H715   1.086       .  S
C710        C711   1.372       .  D
C711        C850   1.497       .  S
C716        C717   1.551       .  S
C716        C722   1.534       .  S
C716        C720   1.549       .  S
C716        C927   1.532       .  S
C717        H724   1.081       .  S
C717        C718   1.362       .  D
C718        C719   1.527       .  S
C718        C830   1.473       .  S
C719        C723   1.531       .  S
C719        C721   1.538       .  S
C719        H725   1.111       .  S
C720        H726   1.086       .  S
C720        C721   1.372       .  D
C721        C820   1.486       .  S
C722        H727   1.086       .  S
C722        C723   1.360       .  D
C723        C867   1.475       .  S
C728        C729   1.543       .  S
C728        C734   1.545       .  S
C728        C732   1.542       .  S
C728        C950   1.536       .  S
C729        H736   1.086       .  S
C729        C730   1.371       .  D
C730        C731   1.540       .  S
C730        C807   1.492       .  S
C731        C735   1.534       .  S
C731        C733   1.530       .  S
C731        H737   1.110       .  S
C732        H738   1.081       .  S
C732        C733   1.361       .  D
C733        C880   1.474       .  S
C734        H739   1.086       .  S
C734        C735   1.367       .  D
C735        C797   1.483       .  S
C740        C741   1.540       .  S
C740        C746   1.541       .  S
C740        C744   1.544       .  S
C740        C920   1.535       .  S
C741        H748   1.086       .  S
C741        C742   1.367       .  D
C742        C743   1.545       .  S
C742        C817   1.489       .  S
C743        C747   1.540       .  S
C743        C745   1.537       .  S
C743        H749   1.110       .  S
C744        H750   1.080       .  S
C744        C745   1.365       .  D
C745        C787   1.488       .  S
C746        H751   1.085       .  S
C746        C747   1.366       .  D
C747        C800   1.489       .  S
C752        C753   1.538       .  S
C752        C758   1.547       .  S
C752        C756   1.543       .  S
C752        C967   1.534       .  S
C753        H760   1.086       .  S
C753        C754   1.365       .  D
C754        C755   1.536       .  S
C754        C790   1.483       .  S
C755        C759   1.532       .  S
C755        C757   1.535       .  S
C755        H761   1.107       .  S
C756        H762   1.086       .  S
C756        C757   1.367       .  D
C757        C840   1.479       .  S
C758        H763   1.078       .  S
C758        C759   1.366       .  D
C759        C777   1.489       .  S
C764        C765   1.543       .  S
C764        C770   1.531       .  S
C764        C768   1.552       .  S
C764        C937   1.534       .  S
C765        H772   1.084       .  S
C765        C766   1.366       .  D
C766        C767   1.538       .  S
C766        C857   1.486       .  S
C767        C771   1.533       .  S
C767        C769   1.537       .  S
C767        H773   1.109       .  S
C768        H774   1.085       .  S
C768        C769   1.373       .  D
C769        C810   1.488       .  S
C770        H775   1.087       .  S
C770        C771   1.362       .  D
C771        C780   1.480       .  S
C776        C777   1.407       .  A
C776        C781   1.399       .  A
C776        H783   1.079       .  S
C777        C778   1.409       .  A
C778        C779   1.393       .  A
C778        F785   1.357       .  S
C779        C780   1.402       .  A
C779        H784   1.083       .  S
C780        C781   1.404       .  A
C781        F782   1.357       .  S
C786        C787   1.402       .  A
C786        C791   1.393       .  A
C786        H793   1.075       .  S
C787        C788   1.410       .  A
C788        C789   1.396       .  A
C788        F795   1.357       .  S
C789        C790   1.405       .  A
C789        H794   1.083       .  S
C790        C791   1.406       .  A
C791        F792   1.357       .  S
C796        C797   1.402       .  A
C796        C801   1.399       .  A
C796        H803   1.083       .  S
C797        C798   1.407       .  A
C798        C799   1.399       .  A
C798        F805   1.357       .  S
C799        C800   1.404       .  A
C799        H804   1.083       .  S
C800        C801   1.411       .  A
C801        F802   1.357       .  S
C806        C807   1.404       .  A
C806        C811   1.398       .  A
C806        H813   1.083       .  S
C807        C808   1.410       .  A
C808        C809   1.405       .  A
C808        F815   1.357       .  S
C809        C810   1.405       .  A
C809        H814   1.083       .  S
C810        C811   1.407       .  A
C811        F812   1.357       .  S
C816        C817   1.399       .  A
C816        C821   1.392       .  A
C816        H823   1.075       .  S
C817        C818   1.409       .  A
C818        C819   1.408       .  A
C818        F825   1.357       .  S
C819        C820   1.407       .  A
C819        H824   1.083       .  S
C820        C821   1.404       .  A
C821        F822   1.357       .  S
C826        C827   1.403       .  A
C826        C831   1.400       .  A
C826        H833   1.083       .  S
C827        C828   1.404       .  A
C828        C829   1.397       .  A
C828        F835   1.356       .  S
C829        C830   1.401       .  A
C829        H834   1.084       .  S
C830        C831   1.403       .  A
C831        F832   1.357       .  S
C836        C837   1.404       .  A
C836        C841   1.404       .  A
C836        H843   1.083       .  S
C837        C838   1.403       .  A
C838        C839   1.395       .  A
C838        F845   1.357       .  S
C839        C840   1.400       .  A
C839        H844   1.081       .  S
C840        C841   1.406       .  A
C841        F842   1.357       .  S
C846        C847   1.404       .  A
C846        C851   1.395       .  A
C846        H853   1.079       .  S
C847        C848   1.410       .  A
C848        C849   1.401       .  A
C848        F855   1.357       .  S
C849        C850   1.407       .  A
C849        H854   1.082       .  S
C850        C851   1.410       .  A
C851        F852   1.354       .  S
C856        C857   1.403       .  A
C856        C861   1.399       .  A
C856        H863   1.083       .  S
C857        C858   1.409       .  A
C858        C859   1.399       .  A
C858        F865   1.357       .  S
C859        C860   1.403       .  A
C859        H864   1.083       .  S
C860        C861   1.408       .  A
C861        F862   1.357       .  S
C866        C867   1.403       .  A
C866        C871   1.395       .  A
C866        H873   1.083       .  S
C867        C868   1.407       .  A
C868        C869   1.393       .  A
C868        F875   1.357       .  S
C869        C870   1.401       .  A
C869        H874   1.083       .  S
C870        C871   1.405       .  A
C871        F872   1.357       .  S
C876        C877   1.404       .  A
C876        C881   1.396       .  A
C876        H883   1.083       .  S
C877        C878   1.403       .  A
C878        C879   1.392       .  A
C878        F885   1.358       .  S
C879        C880   1.404       .  A
C879        H884   1.083       .  S
C880        C881   1.403       .  A
C881        F882   1.357       .  S
C886        C887   1.402       .  A
C886        C891   1.397       .  A
C886        H893   1.084       .  S
C887        C888   1.403       .  A
C888        C889   1.400       .  A
C888        F895   1.357       .  S
C889        C890   1.403       .  A
C889        H894   1.083       .  S
C890        C891   1.403       .  A
C891        F892   1.356       .  S
C896        C897   1.404       .  A
C896        C901   1.401       .  A
C896        H903   1.084       .  S
C897        C898   1.402       .  A
C898        C899   1.394       .  A
C898        F905   1.358       .  S
C899        C900   1.412       .  A
C899        H904   1.075       .  S
C900        C901   1.414       .  A
C901        F902   1.358       .  S
C906        C907   1.402       .  A
C906        C911   1.403       .  A
C906        H913   1.083       .  S
C907        C908   1.404       .  A
C908        C909   1.397       .  A
C908        F915   1.358       .  S
C909        C910   1.411       .  A
C909        H914   1.076       .  S
C910        C911   1.415       .  A
C911        F912   1.358       .  S
C916        C917   1.407       .  A
C916        C921   1.395       .  A
C916        H923   1.083       .  S
C917        C918   1.403       .  A
C918        C919   1.402       .  A
C918        F925   1.357       .  S
C919        C920   1.416       .  A
C919        H924   1.076       .  S
C920        C921   1.409       .  A
C921        F922   1.358       .  S
C926        C927   1.412       .  A
C926        C931   1.397       .  A
C926        H933   1.076       .  S
C927        C928   1.413       .  A
C928        C929   1.398       .  A
C928        F935   1.358       .  S
C929        C930   1.403       .  A
C929        H934   1.083       .  S
C930        C931   1.405       .  A
C931        F932   1.358       .  S
C936        C937   1.411       .  A
C936        C941   1.403       .  A
C936        H943   1.082       .  S
C937        C938   1.418       .  A
C938        C939   1.398       .  A
C938        F945   1.356       .  S
C939        C940   1.399       .  A
C939        H944   1.084       .  S
C940        C941   1.406       .  A
C941        F942   1.357       .  S
C946        C947   1.408       .  A
C946        C951   1.398       .  A
C946        H953   1.083       .  S
C947        C948   1.403       .  A
C948        C949   1.400       .  A
C948        F955   1.358       .  S
C949        C950   1.416       .  A
C949        H954   1.076       .  S
C950        C951   1.409       .  A
C951        F952   1.358       .  S
C956        C957   1.405       .  A
C956        C961   1.406       .  A
C956        H963   1.083       .  S
C957        C958   1.408       .  A
C958        C959   1.393       .  A
C958        F965   1.358       .  S
C959        C960   1.409       .  A
C959        H964   1.076       .  S
C960        C961   1.415       .  A
C961        F962   1.357       .  S
C966        C967   1.414       .  A
C966        C971   1.397       .  A
C966        H973   1.075       .  S
C967        C968   1.414       .  A
C968        C969   1.398       .  A
C968        F975   1.358       .  S
C969        C970   1.401       .  A
C969        H974   1.084       .  S
C970        C971   1.402       .  A
C971        F972   1.358       .  S
O976        C984   1.270       .  A
O976      Co2296   1.973       .  S
O977        C985   1.256       .  A
O977      Co1972   1.968   1_455  S
O978        C986   1.275       .  A
O979        C987   1.301       .  A
O980        C986   1.257       .  A
O981        C987   1.264       .  A
O981       Co996   1.875       .  S
O982        C985   1.264       .  A
O983        C984   1.278       .  A
O983       Co998   2.022   1_566  S
C984       C1265   1.480       .  S
C985       C1222   1.475       .  S
C986       C1272   1.485       .  S
C987       C1282   1.488       .  S
O988       C1001   1.297       .  A
O989       C1002   1.276       .  A
O989       Co997   2.044       .  S
O990       C1003   1.254       .  A
O991       C1004   1.270       .  A
O991       Co999   1.972       .  S
O992       C1004   1.275       .  A
O992      Co2297   2.012   1_455  S
O993       C1003   1.261       .  A
O993      Co1971   2.010       .  S
O994       C1001   1.267       .  A
O995       C1002   1.257       .  A
Co996      O2276   1.973   1_455  S
Co996      O1968   2.010   1_456  S
Co996      O1000   2.007   1_465  S
Co997      O1952   1.968       .  S
Co997      O2292   2.012       .  S
Co997      O1325   2.031       .  S
Co998      O2300   2.028   1_554  S
O1000     Co1322   2.031       .  S
O1000     Co2298   2.028   1_556  S
C1001      C1232   1.479       .  S
C1002      C1242   1.484       .  S
C1003      C1295   1.474       .  S
C1004      C1255   1.479       .  S
C1005      C1006   1.539       .  S
C1005      C1011   1.548       .  S
C1005      C1009   1.543       .  S
C1005      C1225   1.532       .  S
C1006      H1013   1.086       .  S
C1006      C1007   1.366       .  D
C1007      C1008   1.529       .  S
C1007      C1202   1.473       .  S
C1008      C1012   1.527       .  S
C1008      C1010   1.528       .  S
C1008      H1014   1.111       .  S
C1009      H1015   1.086       .  S
C1009      C1010   1.367       .  D
C1010      C1212   1.473       .  S
C1011      H1016   1.080       .  S
C1011      C1012   1.362       .  D
C1012      C1195   1.473       .  S
C1017      C1018   1.549       .  S
C1017      C1023   1.538       .  S
C1017      C1021   1.543       .  S
C1017      C1285   1.537       .  S
C1018      H1025   1.081       .  S
C1018      C1019   1.359       .  D
C1019      C1020   1.531       .  S
C1019      C1215   1.475       .  S
C1020      C1024   1.543       .  S
C1020      C1022   1.538       .  S
C1020      H1026   1.108       .  S
C1021      H1027   1.086       .  S
C1021      C1022   1.369       .  D
C1022      C1185   1.486       .  S
C1023      H1028   1.085       .  S
C1023      C1024   1.370       .  D
C1024      C1172   1.496       .  S
C1029      C1030   1.544       .  S
C1029      C1035   1.542       .  S
C1029      C1033   1.548       .  S
C1029      C1235   1.537       .  S
C1030      H1037   1.086       .  S
C1030      C1031   1.364       .  D
C1031      C1032   1.533       .  S
C1031      C1162   1.478       .  S
C1032      C1036   1.539       .  S
C1032      C1034   1.534       .  S
C1032      H1038   1.107       .  S
C1033      H1039   1.081       .  S
C1033      C1034   1.361       .  D
C1034      C1152   1.475       .  S
C1035      H1040   1.085       .  S
C1035      C1036   1.372       .  D
C1036      C1175   1.497       .  S
C1041      C1042   1.551       .  S
C1041      C1047   1.534       .  S
C1041      C1045   1.549       .  S
C1041      C1252   1.532       .  S
C1042      H1049   1.081       .  S
C1042      C1043   1.362       .  D
C1043      C1044   1.527       .  S
C1043      C1155   1.473       .  S
C1044      C1048   1.531       .  S
C1044      C1046   1.538       .  S
C1044      H1050   1.111       .  S
C1045      H1051   1.086       .  S
C1045      C1046   1.372       .  D
C1046      C1145   1.486       .  S
C1047      H1052   1.086       .  S
C1047      C1048   1.360       .  D
C1048      C1192   1.475       .  S
C1053      C1054   1.543       .  S
C1053      C1059   1.545       .  S
C1053      C1057   1.542       .  S
C1053      C1275   1.536       .  S
C1054      H1061   1.086       .  S
C1054      C1055   1.371       .  D
C1055      C1056   1.540       .  S
C1055      C1132   1.492       .  S
C1056      C1060   1.534       .  S
C1056      C1058   1.530       .  S
C1056      H1062   1.110       .  S
C1057      H1063   1.081       .  S
C1057      C1058   1.361       .  D
C1058      C1205   1.474       .  S
C1059      H1064   1.086       .  S
C1059      C1060   1.367       .  D
C1060      C1122   1.483       .  S
C1065      C1066   1.540       .  S
C1065      C1071   1.541       .  S
C1065      C1069   1.544       .  S
C1065      C1245   1.535       .  S
C1066      H1073   1.086       .  S
C1066      C1067   1.367       .  D
C1067      C1068   1.545       .  S
C1067      C1142   1.489       .  S
C1068      C1072   1.540       .  S
C1068      C1070   1.537       .  S
C1068      H1074   1.110       .  S
C1069      H1075   1.080       .  S
C1069      C1070   1.365       .  D
C1070      C1112   1.488       .  S
C1071      H1076   1.085       .  S
C1071      C1072   1.366       .  D
C1072      C1125   1.489       .  S
C1077      C1078   1.538       .  S
C1077      C1083   1.547       .  S
C1077      C1081   1.543       .  S
C1077      C1292   1.534       .  S
C1078      H1085   1.086       .  S
C1078      C1079   1.365       .  D
C1079      C1080   1.536       .  S
C1079      C1115   1.483       .  S
C1080      C1084   1.532       .  S
C1080      C1082   1.535       .  S
C1080      H1086   1.107       .  S
C1081      H1087   1.086       .  S
C1081      C1082   1.367       .  D
C1082      C1165   1.479       .  S
C1083      H1088   1.078       .  S
C1083      C1084   1.366       .  D
C1084      C1102   1.489       .  S
C1089      C1090   1.543       .  S
C1089      C1095   1.531       .  S
C1089      C1093   1.552       .  S
C1089      C1262   1.534       .  S
C1090      H1097   1.084       .  S
C1090      C1091   1.366       .  D
C1091      C1092   1.538       .  S
C1091      C1182   1.486       .  S
C1092      C1096   1.533       .  S
C1092      C1094   1.537       .  S
C1092      H1098   1.109       .  S
C1093      H1099   1.085       .  S
C1093      C1094   1.373       .  D
C1094      C1135   1.488       .  S
C1095      H1100   1.087       .  S
C1095      C1096   1.362       .  D
C1096      C1105   1.480       .  S
C1101      C1102   1.407       .  A
C1101      C1106   1.399       .  A
C1101      H1108   1.079       .  S
C1102      C1103   1.409       .  A
C1103      C1104   1.393       .  A
C1103      F1110   1.357       .  S
C1104      C1105   1.402       .  A
C1104      H1109   1.083       .  S
C1105      C1106   1.404       .  A
C1106      F1107   1.357       .  S
C1111      C1112   1.402       .  A
C1111      C1116   1.393       .  A
C1111      H1118   1.075       .  S
C1112      C1113   1.410       .  A
C1113      C1114   1.396       .  A
C1113      F1120   1.357       .  S
C1114      C1115   1.405       .  A
C1114      H1119   1.083       .  S
C1115      C1116   1.406       .  A
C1116      F1117   1.357       .  S
C1121      C1122   1.402       .  A
C1121      C1126   1.399       .  A
C1121      H1128   1.083       .  S
C1122      C1123   1.407       .  A
C1123      C1124   1.399       .  A
C1123      F1130   1.357       .  S
C1124      C1125   1.404       .  A
C1124      H1129   1.083       .  S
C1125      C1126   1.411       .  A
C1126      F1127   1.357       .  S
C1131      C1132   1.404       .  A
C1131      C1136   1.398       .  A
C1131      H1138   1.083       .  S
C1132      C1133   1.410       .  A
C1133      C1134   1.405       .  A
C1133      F1140   1.357       .  S
C1134      C1135   1.405       .  A
C1134      H1139   1.083       .  S
C1135      C1136   1.407       .  A
C1136      F1137   1.357       .  S
C1141      C1142   1.399       .  A
C1141      C1146   1.392       .  A
C1141      H1148   1.075       .  S
C1142      C1143   1.409       .  A
C1143      C1144   1.408       .  A
C1143      F1150   1.357       .  S
C1144      C1145   1.407       .  A
C1144      H1149   1.083       .  S
C1145      C1146   1.404       .  A
C1146      F1147   1.357       .  S
C1151      C1152   1.403       .  A
C1151      C1156   1.400       .  A
C1151      H1158   1.083       .  S
C1152      C1153   1.404       .  A
C1153      C1154   1.397       .  A
C1153      F1160   1.356       .  S
C1154      C1155   1.401       .  A
C1154      H1159   1.084       .  S
C1155      C1156   1.403       .  A
C1156      F1157   1.357       .  S
C1161      C1162   1.404       .  A
C1161      C1166   1.404       .  A
C1161      H1168   1.083       .  S
C1162      C1163   1.403       .  A
C1163      C1164   1.395       .  A
C1163      F1170   1.357       .  S
C1164      C1165   1.400       .  A
C1164      H1169   1.081       .  S
C1165      C1166   1.406       .  A
C1166      F1167   1.357       .  S
C1171      C1172   1.404       .  A
C1171      C1176   1.395       .  A
C1171      H1178   1.079       .  S
C1172      C1173   1.410       .  A
C1173      C1174   1.401       .  A
C1173      F1180   1.357       .  S
C1174      C1175   1.407       .  A
C1174      H1179   1.082       .  S
C1175      C1176   1.410       .  A
C1176      F1177   1.354       .  S
C1181      C1182   1.403       .  A
C1181      C1186   1.399       .  A
C1181      H1188   1.083       .  S
C1182      C1183   1.409       .  A
C1183      C1184   1.399       .  A
C1183      F1190   1.357       .  S
C1184      C1185   1.403       .  A
C1184      H1189   1.083       .  S
C1185      C1186   1.408       .  A
C1186      F1187   1.357       .  S
C1191      C1192   1.403       .  A
C1191      C1196   1.395       .  A
C1191      H1198   1.083       .  S
C1192      C1193   1.407       .  A
C1193      C1194   1.393       .  A
C1193      F1200   1.357       .  S
C1194      C1195   1.401       .  A
C1194      H1199   1.083       .  S
C1195      C1196   1.405       .  A
C1196      F1197   1.357       .  S
C1201      C1202   1.404       .  A
C1201      C1206   1.396       .  A
C1201      H1208   1.083       .  S
C1202      C1203   1.403       .  A
C1203      C1204   1.392       .  A
C1203      F1210   1.358       .  S
C1204      C1205   1.404       .  A
C1204      H1209   1.083       .  S
C1205      C1206   1.403       .  A
C1206      F1207   1.357       .  S
C1211      C1212   1.402       .  A
C1211      C1216   1.397       .  A
C1211      H1218   1.084       .  S
C1212      C1213   1.403       .  A
C1213      C1214   1.400       .  A
C1213      F1220   1.357       .  S
C1214      C1215   1.403       .  A
C1214      H1219   1.083       .  S
C1215      C1216   1.403       .  A
C1216      F1217   1.356       .  S
C1221      C1222   1.404       .  A
C1221      C1226   1.401       .  A
C1221      H1228   1.084       .  S
C1222      C1223   1.402       .  A
C1223      C1224   1.394       .  A
C1223      F1230   1.358       .  S
C1224      C1225   1.412       .  A
C1224      H1229   1.075       .  S
C1225      C1226   1.414       .  A
C1226      F1227   1.358       .  S
C1231      C1232   1.402       .  A
C1231      C1236   1.403       .  A
C1231      H1238   1.083       .  S
C1232      C1233   1.404       .  A
C1233      C1234   1.397       .  A
C1233      F1240   1.358       .  S
C1234      C1235   1.411       .  A
C1234      H1239   1.076       .  S
C1235      C1236   1.415       .  A
C1236      F1237   1.358       .  S
C1241      C1242   1.407       .  A
C1241      C1246   1.395       .  A
C1241      H1248   1.083       .  S
C1242      C1243   1.403       .  A
C1243      C1244   1.402       .  A
C1243      F1250   1.357       .  S
C1244      C1245   1.416       .  A
C1244      H1249   1.076       .  S
C1245      C1246   1.409       .  A
C1246      F1247   1.358       .  S
C1251      C1252   1.412       .  A
C1251      C1256   1.397       .  A
C1251      H1258   1.076       .  S
C1252      C1253   1.413       .  A
C1253      C1254   1.398       .  A
C1253      F1260   1.358       .  S
C1254      C1255   1.403       .  A
C1254      H1259   1.083       .  S
C1255      C1256   1.405       .  A
C1256      F1257   1.358       .  S
C1261      C1262   1.411       .  A
C1261      C1266   1.403       .  A
C1261      H1268   1.082       .  S
C1262      C1263   1.418       .  A
C1263      C1264   1.398       .  A
C1263      F1270   1.356       .  S
C1264      C1265   1.399       .  A
C1264      H1269   1.084       .  S
C1265      C1266   1.406       .  A
C1266      F1267   1.357       .  S
C1271      C1272   1.408       .  A
C1271      C1276   1.398       .  A
C1271      H1278   1.083       .  S
C1272      C1273   1.403       .  A
C1273      C1274   1.400       .  A
C1273      F1280   1.358       .  S
C1274      C1275   1.416       .  A
C1274      H1279   1.076       .  S
C1275      C1276   1.409       .  A
C1276      F1277   1.358       .  S
C1281      C1282   1.405       .  A
C1281      C1286   1.406       .  A
C1281      H1288   1.083       .  S
C1282      C1283   1.408       .  A
C1283      C1284   1.393       .  A
C1283      F1290   1.358       .  S
C1284      C1285   1.409       .  A
C1284      H1289   1.076       .  S
C1285      C1286   1.415       .  A
C1286      F1287   1.357       .  S
C1291      C1292   1.414       .  A
C1291      C1296   1.397       .  A
C1291      H1298   1.075       .  S
C1292      C1293   1.414       .  A
C1293      C1294   1.398       .  A
C1293      F1300   1.358       .  S
C1294      C1295   1.401       .  A
C1294      H1299   1.084       .  S
C1295      C1296   1.402       .  A
C1296      F1297   1.358       .  S
O1301      C1309   1.270       .  A
O1302      C1310   1.256       .  A
O1303      C1311   1.275       .  A
O1303     Co1973   2.038       .  S
O1304      C1312   1.301       .  A
O1304     Co2299   2.125       .  S
O1305      C1311   1.257       .  A
O1305     Co1647   1.952       .  S
O1306      C1312   1.264       .  A
O1306     Co1321   1.875       .  S
O1307      C1310   1.264       .  A
O1307     Co1649   2.014   1_545  S
O1308      C1309   1.278       .  A
O1308     Co1323   2.022       .  S
C1309      C1590   1.480       .  S
C1310      C1547   1.475       .  S
C1311      C1597   1.485       .  S
C1312      C1607   1.488       .  S
O1313      C1326   1.297       .  A
O1313     Co1646   2.105   1_554  S
O1314      C1327   1.276       .  A
O1314     Co1322   2.044   1_554  S
O1315      C1328   1.254       .  A
O1315     Co1648   1.971       .  S
O1316      C1329   1.270       .  A
O1316     Co1324   1.972   1_545  S
O1317      C1329   1.275       .  A
O1318      C1328   1.261       .  A
O1319      C1326   1.267       .  A
O1319     Co1974   1.897       .  S
O1320      C1327   1.257       .  A
O1320     Co2298   1.949       .  S
Co1321     O1638   2.105       .  S
Co1321     O1325   2.007       .  S
Co1322     O1630   1.952       .  S
Co1323     O1953   2.038       .  S
Co1323     O1640   1.971       .  S
Co1323     O2295   1.949       .  S
Co1324     O2279   2.126   1_554  S
Co1324     O1632   2.014   1_564  S
Co1324     O1969   1.897       .  S
Co1324     O2300   2.020   1_564  S
O1325     Co2299   2.020       .  S
C1326      C1557   1.479       .  S
C1327      C1567   1.484       .  S
C1328      C1620   1.474       .  S
C1329      C1580   1.478       .  S
C1330      C1331   1.539       .  S
C1330      C1336   1.548       .  S
C1330      C1334   1.543       .  S
C1330      C1550   1.532       .  S
C1331      H1338   1.086       .  S
C1331      C1332   1.366       .  D
C1332      C1333   1.529       .  S
C1332      C1527   1.473       .  S
C1333      C1337   1.527       .  S
C1333      C1335   1.528       .  S
C1333      H1339   1.111       .  S
C1334      H1340   1.086       .  S
C1334      C1335   1.367       .  D
C1335      C1537   1.473       .  S
C1336      H1341   1.080       .  S
C1336      C1337   1.362       .  D
C1337      C1520   1.473       .  S
C1342      C1343   1.549       .  S
C1342      C1348   1.538       .  S
C1342      C1346   1.543       .  S
C1342      C1610   1.537       .  S
C1343      H1350   1.081       .  S
C1343      C1344   1.359       .  D
C1344      C1345   1.531       .  S
C1344      C1540   1.475       .  S
C1345      C1349   1.542       .  S
C1345      C1347   1.538       .  S
C1345      H1351   1.108       .  S
C1346      H1352   1.086       .  S
C1346      C1347   1.369       .  D
C1347      C1510   1.486       .  S
C1348      H1353   1.085       .  S
C1348      C1349   1.370       .  D
C1349      C1497   1.496       .  S
C1354      C1355   1.544       .  S
C1354      C1360   1.542       .  S
C1354      C1358   1.548       .  S
C1354      C1560   1.537       .  S
C1355      H1362   1.086       .  S
C1355      C1356   1.364       .  D
C1356      C1357   1.533       .  S
C1356      C1487   1.478       .  S
C1357      C1361   1.539       .  S
C1357      C1359   1.534       .  S
C1357      H1363   1.107       .  S
C1358      H1364   1.081       .  S
C1358      C1359   1.361       .  D
C1359      C1477   1.475       .  S
C1360      H1365   1.085       .  S
C1360      C1361   1.372       .  D
C1361      C1500   1.497       .  S
C1366      C1367   1.551       .  S
C1366      C1372   1.534       .  S
C1366      C1370   1.549       .  S
C1366      C1577   1.532       .  S
C1367      H1374   1.081       .  S
C1367      C1368   1.362       .  D
C1368      C1369   1.527       .  S
C1368      C1480   1.473       .  S
C1369      C1373   1.531       .  S
C1369      C1371   1.538       .  S
C1369      H1375   1.111       .  S
C1370      H1376   1.086       .  S
C1370      C1371   1.372       .  D
C1371      C1470   1.486       .  S
C1372      H1377   1.086       .  S
C1372      C1373   1.360       .  D
C1373      C1517   1.475       .  S
C1378      C1379   1.543       .  S
C1378      C1384   1.545       .  S
C1378      C1382   1.542       .  S
C1378      C1600   1.536       .  S
C1379      H1386   1.086       .  S
C1379      C1380   1.371       .  D
C1380      C1381   1.540       .  S
C1380      C1457   1.492       .  S
C1381      C1385   1.534       .  S
C1381      C1383   1.530       .  S
C1381      H1387   1.110       .  S
C1382      H1388   1.081       .  S
C1382      C1383   1.361       .  D
C1383      C1530   1.474       .  S
C1384      H1389   1.086       .  S
C1384      C1385   1.367       .  D
C1385      C1447   1.483       .  S
C1390      C1391   1.540       .  S
C1390      C1396   1.541       .  S
C1390      C1394   1.544       .  S
C1390      C1570   1.535       .  S
C1391      H1398   1.086       .  S
C1391      C1392   1.367       .  D
C1392      C1393   1.545       .  S
C1392      C1467   1.489       .  S
C1393      C1397   1.540       .  S
C1393      C1395   1.537       .  S
C1393      H1399   1.110       .  S
C1394      H1400   1.080       .  S
C1394      C1395   1.365       .  D
C1395      C1437   1.488       .  S
C1396      H1401   1.085       .  S
C1396      C1397   1.366       .  D
C1397      C1450   1.489       .  S
C1402      C1403   1.538       .  S
C1402      C1408   1.547       .  S
C1402      C1406   1.543       .  S
C1402      C1617   1.534       .  S
C1403      H1410   1.086       .  S
C1403      C1404   1.365       .  D
C1404      C1405   1.536       .  S
C1404      C1440   1.483       .  S
C1405      C1409   1.532       .  S
C1405      C1407   1.535       .  S
C1405      H1411   1.107       .  S
C1406      H1412   1.086       .  S
C1406      C1407   1.367       .  D
C1407      C1490   1.479       .  S
C1408      H1413   1.078       .  S
C1408      C1409   1.366       .  D
C1409      C1427   1.489       .  S
C1414      C1415   1.543       .  S
C1414      C1420   1.531       .  S
C1414      C1418   1.552       .  S
C1414      C1587   1.534       .  S
C1415      H1422   1.084       .  S
C1415      C1416   1.366       .  D
C1416      C1417   1.538       .  S
C1416      C1507   1.486       .  S
C1417      C1421   1.533       .  S
C1417      C1419   1.537       .  S
C1417      H1423   1.109       .  S
C1418      H1424   1.085       .  S
C1418      C1419   1.373       .  D
C1419      C1460   1.488       .  S
C1420      H1425   1.087       .  S
C1420      C1421   1.362       .  D
C1421      C1430   1.480       .  S
C1426      C1427   1.407       .  A
C1426      C1431   1.399       .  A
C1426      H1433   1.079       .  S
C1427      C1428   1.409       .  A
C1428      C1429   1.393       .  A
C1428      F1435   1.357       .  S
C1429      C1430   1.402       .  A
C1429      H1434   1.083       .  S
C1430      C1431   1.404       .  A
C1431      F1432   1.357       .  S
C1436      C1437   1.402       .  A
C1436      C1441   1.393       .  A
C1436      H1443   1.075       .  S
C1437      C1438   1.410       .  A
C1438      C1439   1.396       .  A
C1438      F1445   1.357       .  S
C1439      C1440   1.405       .  A
C1439      H1444   1.083       .  S
C1440      C1441   1.406       .  A
C1441      F1442   1.357       .  S
C1446      C1447   1.402       .  A
C1446      C1451   1.399       .  A
C1446      H1453   1.083       .  S
C1447      C1448   1.407       .  A
C1448      C1449   1.399       .  A
C1448      F1455   1.357       .  S
C1449      C1450   1.404       .  A
C1449      H1454   1.083       .  S
C1450      C1451   1.411       .  A
C1451      F1452   1.357       .  S
C1456      C1457   1.404       .  A
C1456      C1461   1.398       .  A
C1456      H1463   1.083       .  S
C1457      C1458   1.410       .  A
C1458      C1459   1.405       .  A
C1458      F1465   1.357       .  S
C1459      C1460   1.405       .  A
C1459      H1464   1.083       .  S
C1460      C1461   1.407       .  A
C1461      F1462   1.357       .  S
C1466      C1467   1.399       .  A
C1466      C1471   1.392       .  A
C1466      H1473   1.075       .  S
C1467      C1468   1.409       .  A
C1468      C1469   1.408       .  A
C1468      F1475   1.357       .  S
C1469      C1470   1.407       .  A
C1469      H1474   1.083       .  S
C1470      C1471   1.404       .  A
C1471      F1472   1.357       .  S
C1476      C1477   1.403       .  A
C1476      C1481   1.400       .  A
C1476      H1483   1.083       .  S
C1477      C1478   1.404       .  A
C1478      C1479   1.397       .  A
C1478      F1485   1.356       .  S
C1479      C1480   1.401       .  A
C1479      H1484   1.084       .  S
C1480      C1481   1.403       .  A
C1481      F1482   1.357       .  S
C1486      C1487   1.404       .  A
C1486      C1491   1.404       .  A
C1486      H1493   1.083       .  S
C1487      C1488   1.403       .  A
C1488      C1489   1.395       .  A
C1488      F1495   1.357       .  S
C1489      C1490   1.400       .  A
C1489      H1494   1.081       .  S
C1490      C1491   1.406       .  A
C1491      F1492   1.357       .  S
C1496      C1497   1.404       .  A
C1496      C1501   1.395       .  A
C1496      H1503   1.079       .  S
C1497      C1498   1.410       .  A
C1498      C1499   1.401       .  A
C1498      F1505   1.357       .  S
C1499      C1500   1.407       .  A
C1499      H1504   1.082       .  S
C1500      C1501   1.410       .  A
C1501      F1502   1.354       .  S
C1506      C1507   1.403       .  A
C1506      C1511   1.399       .  A
C1506      H1513   1.083       .  S
C1507      C1508   1.409       .  A
C1508      C1509   1.399       .  A
C1508      F1515   1.357       .  S
C1509      C1510   1.403       .  A
C1509      H1514   1.083       .  S
C1510      C1511   1.408       .  A
C1511      F1512   1.357       .  S
C1516      C1517   1.403       .  A
C1516      C1521   1.395       .  A
C1516      H1523   1.083       .  S
C1517      C1518   1.407       .  A
C1518      C1519   1.393       .  A
C1518      F1525   1.357       .  S
C1519      C1520   1.401       .  A
C1519      H1524   1.083       .  S
C1520      C1521   1.405       .  A
C1521      F1522   1.357       .  S
C1526      C1527   1.404       .  A
C1526      C1531   1.396       .  A
C1526      H1533   1.083       .  S
C1527      C1528   1.403       .  A
C1528      C1529   1.392       .  A
C1528      F1535   1.358       .  S
C1529      C1530   1.404       .  A
C1529      H1534   1.083       .  S
C1530      C1531   1.403       .  A
C1531      F1532   1.357       .  S
C1536      C1537   1.402       .  A
C1536      C1541   1.397       .  A
C1536      H1543   1.084       .  S
C1537      C1538   1.403       .  A
C1538      C1539   1.400       .  A
C1538      F1545   1.357       .  S
C1539      C1540   1.403       .  A
C1539      H1544   1.083       .  S
C1540      C1541   1.403       .  A
C1541      F1542   1.356       .  S
C1546      C1547   1.404       .  A
C1546      C1551   1.401       .  A
C1546      H1553   1.084       .  S
C1547      C1548   1.402       .  A
C1548      C1549   1.394       .  A
C1548      F1555   1.358       .  S
C1549      C1550   1.412       .  A
C1549      H1554   1.075       .  S
C1550      C1551   1.414       .  A
C1551      F1552   1.358       .  S
C1556      C1557   1.402       .  A
C1556      C1561   1.403       .  A
C1556      H1563   1.083       .  S
C1557      C1558   1.404       .  A
C1558      C1559   1.397       .  A
C1558      F1565   1.358       .  S
C1559      C1560   1.411       .  A
C1559      H1564   1.076       .  S
C1560      C1561   1.415       .  A
C1561      F1562   1.358       .  S
C1566      C1567   1.407       .  A
C1566      C1571   1.395       .  A
C1566      H1573   1.083       .  S
C1567      C1568   1.403       .  A
C1568      C1569   1.402       .  A
C1568      F1575   1.357       .  S
C1569      C1570   1.416       .  A
C1569      H1574   1.076       .  S
C1570      C1571   1.409       .  A
C1571      F1572   1.358       .  S
C1576      C1577   1.412       .  A
C1576      C1581   1.397       .  A
C1576      H1583   1.076       .  S
C1577      C1578   1.413       .  A
C1578      C1579   1.398       .  A
C1578      F1585   1.358       .  S
C1579      C1580   1.403       .  A
C1579      H1584   1.083       .  S
C1580      C1581   1.405       .  A
C1581      F1582   1.358       .  S
C1586      C1587   1.411       .  A
C1586      C1591   1.403       .  A
C1586      H1593   1.082       .  S
C1587      C1588   1.418       .  A
C1588      C1589   1.398       .  A
C1588      F1595   1.356       .  S
C1589      C1590   1.399       .  A
C1589      H1594   1.084       .  S
C1590      C1591   1.406       .  A
C1591      F1592   1.357       .  S
C1596      C1597   1.408       .  A
C1596      C1601   1.398       .  A
C1596      H1603   1.083       .  S
C1597      C1598   1.403       .  A
C1598      C1599   1.400       .  A
C1598      F1605   1.358       .  S
C1599      C1600   1.416       .  A
C1599      H1604   1.076       .  S
C1600      C1601   1.409       .  A
C1601      F1602   1.358       .  S
C1606      C1607   1.405       .  A
C1606      C1611   1.406       .  A
C1606      H1613   1.083       .  S
C1607      C1608   1.408       .  A
C1608      C1609   1.393       .  A
C1608      F1615   1.358       .  S
C1609      C1610   1.409       .  A
C1609      H1614   1.076       .  S
C1610      C1611   1.415       .  A
C1611      F1612   1.357       .  S
C1616      C1617   1.414       .  A
C1616      C1621   1.397       .  A
C1616      H1623   1.075       .  S
C1617      C1618   1.414       .  A
C1618      C1619   1.398       .  A
C1618      F1625   1.358       .  S
C1619      C1620   1.401       .  A
C1619      H1624   1.084       .  S
C1620      C1621   1.402       .  A
C1621      F1622   1.358       .  S
O1626      C1634   1.270       .  A
O1627      C1635   1.256       .  A
O1628      C1636   1.275       .  A
O1628     Co2298   2.038   1_556  S
O1629      C1637   1.301       .  A
O1629     Co1974   2.125   1_556  S
O1630      C1636   1.257       .  A
O1631      C1637   1.264       .  A
O1631     Co1646   1.875       .  S
O1632      C1635   1.264       .  A
O1633      C1634   1.278       .  A
O1633     Co1648   2.022   1_556  S
C1634      C1915   1.480       .  S
C1635      C1872   1.475       .  S
C1636      C1922   1.485       .  S
C1637      C1932   1.488       .  S
O1638      C1651   1.297       .  A
O1639      C1652   1.276       .  A
O1639     Co1647   2.044       .  S
O1640      C1653   1.254       .  A
O1641      C1654   1.270       .  A
O1641     Co1649   1.972   1_545  S
O1642      C1654   1.275       .  A
O1643      C1653   1.261       .  A
O1644      C1651   1.267       .  A
O1644     Co2299   1.897       .  S
O1645      C1652   1.257       .  A
O1645     Co1973   1.949       .  S
Co1646     O1650   2.007       .  S
Co1648     O2278   2.038   1_554  S
Co1648     O1970   1.949       .  S
Co1649     O1954   2.125       .  S
Co1649     O2294   1.897       .  S
Co1649     O1975   2.020   1_565  S
O1650     Co1974   2.020   1_556  S
C1651      C1882   1.479       .  S
C1652      C1892   1.484       .  S
C1653      C1945   1.474       .  S
C1654      C1905   1.479       .  S
C1655      C1656   1.539       .  S
C1655      C1661   1.548       .  S
C1655      C1659   1.543       .  S
C1655      C1875   1.532       .  S
C1656      H1663   1.086       .  S
C1656      C1657   1.366       .  D
C1657      C1658   1.529       .  S
C1657      C1852   1.473       .  S
C1658      C1662   1.527       .  S
C1658      C1660   1.528       .  S
C1658      H1664   1.111       .  S
C1659      H1665   1.086       .  S
C1659      C1660   1.367       .  D
C1660      C1862   1.473       .  S
C1661      H1666   1.080       .  S
C1661      C1662   1.362       .  D
C1662      C1845   1.473       .  S
C1667      C1668   1.549       .  S
C1667      C1673   1.538       .  S
C1667      C1671   1.543       .  S
C1667      C1935   1.537       .  S
C1668      H1675   1.081       .  S
C1668      C1669   1.359       .  D
C1669      C1670   1.531       .  S
C1669      C1865   1.475       .  S
C1670      C1674   1.543       .  S
C1670      C1672   1.538       .  S
C1670      H1676   1.108       .  S
C1671      H1677   1.086       .  S
C1671      C1672   1.369       .  D
C1672      C1835   1.486       .  S
C1673      H1678   1.085       .  S
C1673      C1674   1.370       .  D
C1674      C1822   1.496       .  S
C1679      C1680   1.544       .  S
C1679      C1685   1.542       .  S
C1679      C1683   1.548       .  S
C1679      C1885   1.537       .  S
C1680      H1687   1.086       .  S
C1680      C1681   1.364       .  D
C1681      C1682   1.533       .  S
C1681      C1812   1.478       .  S
C1682      C1686   1.539       .  S
C1682      C1684   1.534       .  S
C1682      H1688   1.107       .  S
C1683      H1689   1.081       .  S
C1683      C1684   1.361       .  D
C1684      C1802   1.475       .  S
C1685      H1690   1.086       .  S
C1685      C1686   1.372       .  D
C1686      C1825   1.497       .  S
C1691      C1692   1.551       .  S
C1691      C1697   1.534       .  S
C1691      C1695   1.549       .  S
C1691      C1902   1.532       .  S
C1692      H1699   1.081       .  S
C1692      C1693   1.362       .  D
C1693      C1694   1.527       .  S
C1693      C1805   1.473       .  S
C1694      C1698   1.531       .  S
C1694      C1696   1.538       .  S
C1694      H1700   1.111       .  S
C1695      H1701   1.086       .  S
C1695      C1696   1.372       .  D
C1696      C1795   1.486       .  S
C1697      H1702   1.086       .  S
C1697      C1698   1.360       .  D
C1698      C1842   1.475       .  S
C1703      C1704   1.543       .  S
C1703      C1709   1.545       .  S
C1703      C1707   1.542       .  S
C1703      C1925   1.536       .  S
C1704      H1711   1.086       .  S
C1704      C1705   1.371       .  D
C1705      C1706   1.540       .  S
C1705      C1782   1.492       .  S
C1706      C1710   1.534       .  S
C1706      C1708   1.530       .  S
C1706      H1712   1.110       .  S
C1707      H1713   1.081       .  S
C1707      C1708   1.361       .  D
C1708      C1855   1.474       .  S
C1709      H1714   1.086       .  S
C1709      C1710   1.367       .  D
C1710      C1772   1.483       .  S
C1715      C1716   1.541       .  S
C1715      C1721   1.541       .  S
C1715      C1719   1.544       .  S
C1715      C1895   1.535       .  S
C1716      H1723   1.086       .  S
C1716      C1717   1.367       .  D
C1717      C1718   1.545       .  S
C1717      C1792   1.489       .  S
C1718      C1722   1.540       .  S
C1718      C1720   1.537       .  S
C1718      H1724   1.110       .  S
C1719      H1725   1.080       .  S
C1719      C1720   1.365       .  D
C1720      C1762   1.488       .  S
C1721      H1726   1.085       .  S
C1721      C1722   1.366       .  D
C1722      C1775   1.489       .  S
C1727      C1728   1.538       .  S
C1727      C1733   1.547       .  S
C1727      C1731   1.543       .  S
C1727      C1942   1.534       .  S
C1728      H1735   1.086       .  S
C1728      C1729   1.365       .  D
C1729      C1730   1.536       .  S
C1729      C1765   1.483       .  S
C1730      C1734   1.532       .  S
C1730      C1732   1.535       .  S
C1730      H1736   1.107       .  S
C1731      H1737   1.086       .  S
C1731      C1732   1.367       .  D
C1732      C1815   1.479       .  S
C1733      H1738   1.078       .  S
C1733      C1734   1.366       .  D
C1734      C1752   1.489       .  S
C1739      C1740   1.543       .  S
C1739      C1745   1.531       .  S
C1739      C1743   1.552       .  S
C1739      C1912   1.534       .  S
C1740      H1747   1.084       .  S
C1740      C1741   1.366       .  D
C1741      C1742   1.538       .  S
C1741      C1832   1.486       .  S
C1742      C1746   1.533       .  S
C1742      C1744   1.537       .  S
C1742      H1748   1.109       .  S
C1743      H1749   1.085       .  S
C1743      C1744   1.373       .  D
C1744      C1785   1.488       .  S
C1745      H1750   1.087       .  S
C1745      C1746   1.362       .  D
C1746      C1755   1.480       .  S
C1751      C1752   1.407       .  A
C1751      C1756   1.399       .  A
C1751      H1758   1.079       .  S
C1752      C1753   1.409       .  A
C1753      C1754   1.393       .  A
C1753      F1760   1.357       .  S
C1754      C1755   1.402       .  A
C1754      H1759   1.083       .  S
C1755      C1756   1.404       .  A
C1756      F1757   1.357       .  S
C1761      C1762   1.402       .  A
C1761      C1766   1.393       .  A
C1761      H1768   1.075       .  S
C1762      C1763   1.410       .  A
C1763      C1764   1.396       .  A
C1763      F1770   1.357       .  S
C1764      C1765   1.405       .  A
C1764      H1769   1.083       .  S
C1765      C1766   1.406       .  A
C1766      F1767   1.357       .  S
C1771      C1772   1.402       .  A
C1771      C1776   1.399       .  A
C1771      H1778   1.083       .  S
C1772      C1773   1.407       .  A
C1773      C1774   1.399       .  A
C1773      F1780   1.357       .  S
C1774      C1775   1.404       .  A
C1774      H1779   1.083       .  S
C1775      C1776   1.411       .  A
C1776      F1777   1.357       .  S
C1781      C1782   1.404       .  A
C1781      C1786   1.398       .  A
C1781      H1788   1.083       .  S
C1782      C1783   1.410       .  A
C1783      C1784   1.405       .  A
C1783      F1790   1.357       .  S
C1784      C1785   1.405       .  A
C1784      H1789   1.083       .  S
C1785      C1786   1.407       .  A
C1786      F1787   1.357       .  S
C1791      C1792   1.399       .  A
C1791      C1796   1.392       .  A
C1791      H1798   1.075       .  S
C1792      C1793   1.409       .  A
C1793      C1794   1.408       .  A
C1793      F1800   1.357       .  S
C1794      C1795   1.407       .  A
C1794      H1799   1.083       .  S
C1795      C1796   1.404       .  A
C1796      F1797   1.357       .  S
C1801      C1802   1.403       .  A
C1801      C1806   1.400       .  A
C1801      H1808   1.083       .  S
C1802      C1803   1.404       .  A
C1803      C1804   1.397       .  A
C1803      F1810   1.356       .  S
C1804      C1805   1.401       .  A
C1804      H1809   1.084       .  S
C1805      C1806   1.403       .  A
C1806      F1807   1.357       .  S
C1811      C1812   1.404       .  A
C1811      C1816   1.404       .  A
C1811      H1818   1.083       .  S
C1812      C1813   1.403       .  A
C1813      C1814   1.395       .  A
C1813      F1820   1.357       .  S
C1814      C1815   1.400       .  A
C1814      H1819   1.081       .  S
C1815      C1816   1.406       .  A
C1816      F1817   1.357       .  S
C1821      C1822   1.404       .  A
C1821      C1826   1.395       .  A
C1821      H1828   1.079       .  S
C1822      C1823   1.410       .  A
C1823      C1824   1.401       .  A
C1823      F1830   1.357       .  S
C1824      C1825   1.407       .  A
C1824      H1829   1.082       .  S
C1825      C1826   1.410       .  A
C1826      F1827   1.354       .  S
C1831      C1832   1.403       .  A
C1831      C1836   1.399       .  A
C1831      H1838   1.083       .  S
C1832      C1833   1.409       .  A
C1833      C1834   1.399       .  A
C1833      F1840   1.357       .  S
C1834      C1835   1.403       .  A
C1834      H1839   1.083       .  S
C1835      C1836   1.408       .  A
C1836      F1837   1.357       .  S
C1841      C1842   1.403       .  A
C1841      C1846   1.395       .  A
C1841      H1848   1.083       .  S
C1842      C1843   1.407       .  A
C1843      C1844   1.393       .  A
C1843      F1850   1.357       .  S
C1844      C1845   1.401       .  A
C1844      H1849   1.083       .  S
C1845      C1846   1.405       .  A
C1846      F1847   1.357       .  S
C1851      C1852   1.404       .  A
C1851      C1856   1.396       .  A
C1851      H1858   1.083       .  S
C1852      C1853   1.403       .  A
C1853      C1854   1.392       .  A
C1853      F1860   1.358       .  S
C1854      C1855   1.404       .  A
C1854      H1859   1.083       .  S
C1855      C1856   1.403       .  A
C1856      F1857   1.357       .  S
C1861      C1862   1.402       .  A
C1861      C1866   1.397       .  A
C1861      H1868   1.084       .  S
C1862      C1863   1.403       .  A
C1863      C1864   1.400       .  A
C1863      F1870   1.357       .  S
C1864      C1865   1.403       .  A
C1864      H1869   1.083       .  S
C1865      C1866   1.403       .  A
C1866      F1867   1.356       .  S
C1871      C1872   1.404       .  A
C1871      C1876   1.401       .  A
C1871      H1878   1.084       .  S
C1872      C1873   1.402       .  A
C1873      C1874   1.394       .  A
C1873      F1880   1.358       .  S
C1874      C1875   1.412       .  A
C1874      H1879   1.075       .  S
C1875      C1876   1.414       .  A
C1876      F1877   1.358       .  S
C1881      C1882   1.402       .  A
C1881      C1886   1.403       .  A
C1881      H1888   1.083       .  S
C1882      C1883   1.404       .  A
C1883      C1884   1.397       .  A
C1883      F1890   1.358       .  S
C1884      C1885   1.411       .  A
C1884      H1889   1.076       .  S
C1885      C1886   1.415       .  A
C1886      F1887   1.358       .  S
C1891      C1892   1.407       .  A
C1891      C1896   1.395       .  A
C1891      H1898   1.083       .  S
C1892      C1893   1.403       .  A
C1893      C1894   1.402       .  A
C1893      F1900   1.357       .  S
C1894      C1895   1.416       .  A
C1894      H1899   1.076       .  S
C1895      C1896   1.409       .  A
C1896      F1897   1.358       .  S
C1901      C1902   1.412       .  A
C1901      C1906   1.397       .  A
C1901      H1908   1.076       .  S
C1902      C1903   1.413       .  A
C1903      C1904   1.398       .  A
C1903      F1910   1.358       .  S
C1904      C1905   1.403       .  A
C1904      H1909   1.083       .  S
C1905      C1906   1.405       .  A
C1906      F1907   1.358       .  S
C1911      C1912   1.411       .  A
C1911      C1916   1.403       .  A
C1911      H1918   1.082       .  S
C1912      C1913   1.418       .  A
C1913      C1914   1.398       .  A
C1913      F1920   1.356       .  S
C1914      C1915   1.399       .  A
C1914      H1919   1.084       .  S
C1915      C1916   1.406       .  A
C1916      F1917   1.357       .  S
C1921      C1922   1.408       .  A
C1921      C1926   1.398       .  A
C1921      H1928   1.083       .  S
C1922      C1923   1.403       .  A
C1923      C1924   1.400       .  A
C1923      F1930   1.358       .  S
C1924      C1925   1.416       .  A
C1924      H1929   1.076       .  S
C1925      C1926   1.409       .  A
C1926      F1927   1.358       .  S
C1931      C1932   1.405       .  A
C1931      C1936   1.406       .  A
C1931      H1938   1.083       .  S
C1932      C1933   1.408       .  A
C1933      C1934   1.393       .  A
C1933      F1940   1.358       .  S
C1934      C1935   1.409       .  A
C1934      H1939   1.076       .  S
C1935      C1936   1.415       .  A
C1936      F1937   1.357       .  S
C1941      C1942   1.414       .  A
C1941      C1946   1.397       .  A
C1941      H1948   1.075       .  S
C1942      C1943   1.414       .  A
C1943      C1944   1.398       .  A
C1943      F1950   1.358       .  S
C1944      C1945   1.401       .  A
C1944      H1949   1.084       .  S
C1945      C1946   1.402       .  A
C1946      F1947   1.358       .  S
O1951      C1959   1.270       .  A
O1952      C1960   1.256       .  A
O1953      C1961   1.275       .  A
O1954      C1962   1.301       .  A
O1955      C1961   1.257       .  A
O1955     Co2297   1.952       .  S
O1956      C1962   1.264       .  A
O1956     Co1971   1.875       .  S
O1957      C1960   1.264       .  A
O1957     Co2299   2.014       .  S
O1958      C1959   1.278       .  A
O1958     Co1973   2.022   1_565  S
C1959      C2240   1.480       .  S
C1960      C2197   1.475       .  S
C1961      C2247   1.485       .  S
C1962      C2257   1.488       .  S
O1963      C1976   1.297       .  A
O1963     Co2296   2.105   1_554  S
O1964      C1977   1.276       .  A
O1964     Co1972   2.044   1_554  S
O1965      C1978   1.254       .  A
O1965     Co2298   1.971   1_565  S
O1966      C1979   1.270       .  A
O1966     Co1974   1.972       .  S
O1967      C1979   1.275       .  A
O1968      C1978   1.261       .  A
O1969      C1976   1.267       .  A
O1970      C1977   1.257       .  A
Co1971     O2288   2.105       .  S
Co1971     O1975   2.007   1_565  S
Co1972     O2280   1.952       .  S
Co1973     O2290   1.971   1_545  S
Co1974     O2282   2.014   1_554  S
C1976      C2207   1.479       .  S
C1977      C2217   1.484       .  S
C1978      C2270   1.474       .  S
C1979      C2230   1.478       .  S
C1980      C1981   1.539       .  S
C1980      C1986   1.548       .  S
C1980      C1984   1.543       .  S
C1980      C2200   1.532       .  S
C1981      H1988   1.086       .  S
C1981      C1982   1.366       .  D
C1982      C1983   1.529       .  S
C1982      C2177   1.473       .  S
C1983      C1987   1.527       .  S
C1983      C1985   1.528       .  S
C1983      H1989   1.111       .  S
C1984      H1990   1.086       .  S
C1984      C1985   1.367       .  D
C1985      C2187   1.473       .  S
C1986      H1991   1.080       .  S
C1986      C1987   1.362       .  D
C1987      C2170   1.473       .  S
C1992      C1993   1.549       .  S
C1992      C1998   1.538       .  S
C1992      C1996   1.543       .  S
C1992      C2260   1.537       .  S
C1993      H2000   1.081       .  S
C1993      C1994   1.359       .  D
C1994      C1995   1.531       .  S
C1994      C2190   1.475       .  S
C1995      C1999   1.542       .  S
C1995      C1997   1.538       .  S
C1995      H2001   1.108       .  S
C1996      H2002   1.086       .  S
C1996      C1997   1.369       .  D
C1997      C2160   1.486       .  S
C1998      H2003   1.085       .  S
C1998      C1999   1.370       .  D
C1999      C2147   1.496       .  S
C2004      C2005   1.544       .  S
C2004      C2010   1.542       .  S
C2004      C2008   1.548       .  S
C2004      C2210   1.537       .  S
C2005      H2012   1.086       .  S
C2005      C2006   1.364       .  D
C2006      C2007   1.533       .  S
C2006      C2137   1.478       .  S
C2007      C2011   1.539       .  S
C2007      C2009   1.534       .  S
C2007      H2013   1.107       .  S
C2008      H2014   1.081       .  S
C2008      C2009   1.361       .  D
C2009      C2127   1.475       .  S
C2010      H2015   1.085       .  S
C2010      C2011   1.372       .  D
C2011      C2150   1.497       .  S
C2016      C2017   1.551       .  S
C2016      C2022   1.534       .  S
C2016      C2020   1.549       .  S
C2016      C2227   1.532       .  S
C2017      H2024   1.081       .  S
C2017      C2018   1.362       .  D
C2018      C2019   1.527       .  S
C2018      C2130   1.473       .  S
C2019      C2023   1.531       .  S
C2019      C2021   1.538       .  S
C2019      H2025   1.111       .  S
C2020      H2026   1.086       .  S
C2020      C2021   1.372       .  D
C2021      C2120   1.486       .  S
C2022      H2027   1.086       .  S
C2022      C2023   1.360       .  D
C2023      C2167   1.475       .  S
C2028      C2029   1.543       .  S
C2028      C2034   1.545       .  S
C2028      C2032   1.542       .  S
C2028      C2250   1.536       .  S
C2029      H2036   1.086       .  S
C2029      C2030   1.371       .  D
C2030      C2031   1.540       .  S
C2030      C2107   1.492       .  S
C2031      C2035   1.534       .  S
C2031      C2033   1.530       .  S
C2031      H2037   1.110       .  S
C2032      H2038   1.081       .  S
C2032      C2033   1.361       .  D
C2033      C2180   1.474       .  S
C2034      H2039   1.086       .  S
C2034      C2035   1.367       .  D
C2035      C2097   1.483       .  S
C2040      C2041   1.540       .  S
C2040      C2046   1.541       .  S
C2040      C2044   1.544       .  S
C2040      C2220   1.535       .  S
C2041      H2048   1.086       .  S
C2041      C2042   1.367       .  D
C2042      C2043   1.545       .  S
C2042      C2117   1.489       .  S
C2043      C2047   1.540       .  S
C2043      C2045   1.537       .  S
C2043      H2049   1.110       .  S
C2044      H2050   1.080       .  S
C2044      C2045   1.365       .  D
C2045      C2087   1.488       .  S
C2046      H2051   1.085       .  S
C2046      C2047   1.366       .  D
C2047      C2100   1.489       .  S
C2052      C2053   1.538       .  S
C2052      C2058   1.547       .  S
C2052      C2056   1.543       .  S
C2052      C2267   1.534       .  S
C2053      H2060   1.086       .  S
C2053      C2054   1.365       .  D
C2054      C2055   1.536       .  S
C2054      C2090   1.483       .  S
C2055      C2059   1.532       .  S
C2055      C2057   1.535       .  S
C2055      H2061   1.107       .  S
C2056      H2062   1.086       .  S
C2056      C2057   1.367       .  D
C2057      C2140   1.479       .  S
C2058      H2063   1.078       .  S
C2058      C2059   1.366       .  D
C2059      C2077   1.489       .  S
C2064      C2065   1.543       .  S
C2064      C2070   1.531       .  S
C2064      C2068   1.552       .  S
C2064      C2237   1.534       .  S
C2065      H2072   1.084       .  S
C2065      C2066   1.366       .  D
C2066      C2067   1.538       .  S
C2066      C2157   1.486       .  S
C2067      C2071   1.533       .  S
C2067      C2069   1.537       .  S
C2067      H2073   1.109       .  S
C2068      H2074   1.085       .  S
C2068      C2069   1.373       .  D
C2069      C2110   1.488       .  S
C2070      H2075   1.087       .  S
C2070      C2071   1.362       .  D
C2071      C2080   1.480       .  S
C2076      C2077   1.407       .  A
C2076      C2081   1.399       .  A
C2076      H2083   1.079       .  S
C2077      C2078   1.409       .  A
C2078      C2079   1.393       .  A
C2078      F2085   1.357       .  S
C2079      C2080   1.402       .  A
C2079      H2084   1.083       .  S
C2080      C2081   1.404       .  A
C2081      F2082   1.357       .  S
C2086      C2087   1.402       .  A
C2086      C2091   1.393       .  A
C2086      H2093   1.075       .  S
C2087      C2088   1.410       .  A
C2088      C2089   1.396       .  A
C2088      F2095   1.357       .  S
C2089      C2090   1.405       .  A
C2089      H2094   1.083       .  S
C2090      C2091   1.406       .  A
C2091      F2092   1.357       .  S
C2096      C2097   1.402       .  A
C2096      C2101   1.399       .  A
C2096      H2103   1.083       .  S
C2097      C2098   1.407       .  A
C2098      C2099   1.399       .  A
C2098      F2105   1.357       .  S
C2099      C2100   1.404       .  A
C2099      H2104   1.083       .  S
C2100      C2101   1.411       .  A
C2101      F2102   1.357       .  S
C2106      C2107   1.404       .  A
C2106      C2111   1.398       .  A
C2106      H2113   1.083       .  S
C2107      C2108   1.410       .  A
C2108      C2109   1.405       .  A
C2108      F2115   1.357       .  S
C2109      C2110   1.405       .  A
C2109      H2114   1.083       .  S
C2110      C2111   1.407       .  A
C2111      F2112   1.357       .  S
C2116      C2117   1.399       .  A
C2116      C2121   1.392       .  A
C2116      H2123   1.075       .  S
C2117      C2118   1.409       .  A
C2118      C2119   1.408       .  A
C2118      F2125   1.357       .  S
C2119      C2120   1.407       .  A
C2119      H2124   1.083       .  S
C2120      C2121   1.404       .  A
C2121      F2122   1.357       .  S
C2126      C2127   1.403       .  A
C2126      C2131   1.400       .  A
C2126      H2133   1.083       .  S
C2127      C2128   1.404       .  A
C2128      C2129   1.397       .  A
C2128      F2135   1.356       .  S
C2129      C2130   1.401       .  A
C2129      H2134   1.084       .  S
C2130      C2131   1.403       .  A
C2131      F2132   1.357       .  S
C2136      C2137   1.404       .  A
C2136      C2141   1.404       .  A
C2136      H2143   1.083       .  S
C2137      C2138   1.403       .  A
C2138      C2139   1.395       .  A
C2138      F2145   1.357       .  S
C2139      C2140   1.400       .  A
C2139      H2144   1.081       .  S
C2140      C2141   1.406       .  A
C2141      F2142   1.357       .  S
C2146      C2147   1.404       .  A
C2146      C2151   1.395       .  A
C2146      H2153   1.079       .  S
C2147      C2148   1.410       .  A
C2148      C2149   1.401       .  A
C2148      F2155   1.357       .  S
C2149      C2150   1.407       .  A
C2149      H2154   1.082       .  S
C2150      C2151   1.410       .  A
C2151      F2152   1.354       .  S
C2156      C2157   1.403       .  A
C2156      C2161   1.399       .  A
C2156      H2163   1.083       .  S
C2157      C2158   1.409       .  A
C2158      C2159   1.399       .  A
C2158      F2165   1.357       .  S
C2159      C2160   1.403       .  A
C2159      H2164   1.083       .  S
C2160      C2161   1.408       .  A
C2161      F2162   1.357       .  S
C2166      C2167   1.403       .  A
C2166      C2171   1.395       .  A
C2166      H2173   1.083       .  S
C2167      C2168   1.407       .  A
C2168      C2169   1.393       .  A
C2168      F2175   1.357       .  S
C2169      C2170   1.401       .  A
C2169      H2174   1.083       .  S
C2170      C2171   1.405       .  A
C2171      F2172   1.357       .  S
C2176      C2177   1.404       .  A
C2176      C2181   1.396       .  A
C2176      H2183   1.083       .  S
C2177      C2178   1.403       .  A
C2178      C2179   1.392       .  A
C2178      F2185   1.358       .  S
C2179      C2180   1.404       .  A
C2179      H2184   1.083       .  S
C2180      C2181   1.403       .  A
C2181      F2182   1.357       .  S
C2186      C2187   1.402       .  A
C2186      C2191   1.397       .  A
C2186      H2193   1.084       .  S
C2187      C2188   1.403       .  A
C2188      C2189   1.400       .  A
C2188      F2195   1.357       .  S
C2189      C2190   1.403       .  A
C2189      H2194   1.083       .  S
C2190      C2191   1.403       .  A
C2191      F2192   1.356       .  S
C2196      C2197   1.404       .  A
C2196      C2201   1.401       .  A
C2196      H2203   1.084       .  S
C2197      C2198   1.402       .  A
C2198      C2199   1.394       .  A
C2198      F2205   1.358       .  S
C2199      C2200   1.412       .  A
C2199      H2204   1.075       .  S
C2200      C2201   1.414       .  A
C2201      F2202   1.358       .  S
C2206      C2207   1.402       .  A
C2206      C2211   1.403       .  A
C2206      H2213   1.083       .  S
C2207      C2208   1.404       .  A
C2208      C2209   1.397       .  A
C2208      F2215   1.358       .  S
C2209      C2210   1.411       .  A
C2209      H2214   1.076       .  S
C2210      C2211   1.415       .  A
C2211      F2212   1.358       .  S
C2216      C2217   1.407       .  A
C2216      C2221   1.395       .  A
C2216      H2223   1.083       .  S
C2217      C2218   1.403       .  A
C2218      C2219   1.402       .  A
C2218      F2225   1.357       .  S
C2219      C2220   1.416       .  A
C2219      H2224   1.076       .  S
C2220      C2221   1.409       .  A
C2221      F2222   1.358       .  S
C2226      C2227   1.412       .  A
C2226      C2231   1.397       .  A
C2226      H2233   1.076       .  S
C2227      C2228   1.413       .  A
C2228      C2229   1.398       .  A
C2228      F2235   1.358       .  S
C2229      C2230   1.403       .  A
C2229      H2234   1.083       .  S
C2230      C2231   1.405       .  A
C2231      F2232   1.358       .  S
C2236      C2237   1.411       .  A
C2236      C2241   1.403       .  A
C2236      H2243   1.082       .  S
C2237      C2238   1.418       .  A
C2238      C2239   1.398       .  A
C2238      F2245   1.356       .  S
C2239      C2240   1.399       .  A
C2239      H2244   1.084       .  S
C2240      C2241   1.406       .  A
C2241      F2242   1.357       .  S
C2246      C2247   1.408       .  A
C2246      C2251   1.398       .  A
C2246      H2253   1.083       .  S
C2247      C2248   1.403       .  A
C2248      C2249   1.400       .  A
C2248      F2255   1.358       .  S
C2249      C2250   1.416       .  A
C2249      H2254   1.076       .  S
C2250      C2251   1.409       .  A
C2251      F2252   1.358       .  S
C2256      C2257   1.405       .  A
C2256      C2261   1.406       .  A
C2256      H2263   1.083       .  S
C2257      C2258   1.408       .  A
C2258      C2259   1.393       .  A
C2258      F2265   1.358       .  S
C2259      C2260   1.409       .  A
C2259      H2264   1.076       .  S
C2260      C2261   1.415       .  A
C2261      F2262   1.357       .  S
C2266      C2267   1.414       .  A
C2266      C2271   1.397       .  A
C2266      H2273   1.075       .  S
C2267      C2268   1.414       .  A
C2268      C2269   1.398       .  A
C2268      F2275   1.358       .  S
C2269      C2270   1.401       .  A
C2269      H2274   1.084       .  S
C2270      C2271   1.402       .  A
C2271      F2272   1.358       .  S
O2276      C2284   1.270       .  A
O2277      C2285   1.256       .  A
O2278      C2286   1.275       .  A
O2279      C2287   1.301       .  A
O2280      C2286   1.257       .  A
O2281      C2287   1.264       .  A
O2281     Co2296   1.875       .  S
O2282      C2285   1.264       .  A
O2283      C2284   1.278       .  A
O2283     Co2298   2.022   1_566  S
C2284      C2565   1.480       .  S
C2285      C2522   1.475       .  S
C2286      C2572   1.485       .  S
C2287      C2582   1.488       .  S
O2288      C2301   1.297       .  A
O2289      C2302   1.276       .  A
O2289     Co2297   2.044       .  S
O2290      C2303   1.254       .  A
O2291      C2304   1.270       .  A
O2291     Co2299   1.972       .  S
O2292      C2304   1.275       .  A
O2293      C2303   1.261       .  A
O2294      C2301   1.267       .  A
O2295      C2302   1.257       .  A
Co2296     O2300   2.007   1_565  S
C2301      C2532   1.479       .  S
C2302      C2542   1.484       .  S
C2303      C2595   1.474       .  S
C2304      C2555   1.479       .  S
C2305      C2306   1.539       .  S
C2305      C2311   1.548       .  S
C2305      C2309   1.543       .  S
C2305      C2525   1.532       .  S
C2306      H2313   1.086       .  S
C2306      C2307   1.366       .  D
C2307      C2308   1.529       .  S
C2307      C2502   1.473       .  S
C2308      C2312   1.527       .  S
C2308      C2310   1.528       .  S
C2308      H2314   1.111       .  S
C2309      H2315   1.086       .  S
C2309      C2310   1.367       .  D
C2310      C2512   1.473       .  S
C2311      H2316   1.080       .  S
C2311      C2312   1.362       .  D
C2312      C2495   1.473       .  S
C2317      C2318   1.549       .  S
C2317      C2323   1.538       .  S
C2317      C2321   1.543       .  S
C2317      C2585   1.537       .  S
C2318      H2325   1.081       .  S
C2318      C2319   1.359       .  D
C2319      C2320   1.531       .  S
C2319      C2515   1.475       .  S
C2320      C2324   1.543       .  S
C2320      C2322   1.538       .  S
C2320      H2326   1.108       .  S
C2321      H2327   1.086       .  S
C2321      C2322   1.369       .  D
C2322      C2485   1.486       .  S
C2323      H2328   1.085       .  S
C2323      C2324   1.370       .  D
C2324      C2472   1.496       .  S
C2329      C2330   1.544       .  S
C2329      C2335   1.542       .  S
C2329      C2333   1.548       .  S
C2329      C2535   1.537       .  S
C2330      H2337   1.086       .  S
C2330      C2331   1.364       .  D
C2331      C2332   1.533       .  S
C2331      C2462   1.478       .  S
C2332      C2336   1.539       .  S
C2332      C2334   1.534       .  S
C2332      H2338   1.107       .  S
C2333      H2339   1.081       .  S
C2333      C2334   1.361       .  D
C2334      C2452   1.475       .  S
C2335      H2340   1.085       .  S
C2335      C2336   1.372       .  D
C2336      C2475   1.497       .  S
C2341      C2342   1.551       .  S
C2341      C2347   1.534       .  S
C2341      C2345   1.549       .  S
C2341      C2552   1.532       .  S
C2342      H2349   1.081       .  S
C2342      C2343   1.362       .  D
C2343      C2344   1.527       .  S
C2343      C2455   1.473       .  S
C2344      C2348   1.531       .  S
C2344      C2346   1.538       .  S
C2344      H2350   1.111       .  S
C2345      H2351   1.086       .  S
C2345      C2346   1.372       .  D
C2346      C2445   1.486       .  S
C2347      H2352   1.086       .  S
C2347      C2348   1.360       .  D
C2348      C2492   1.475       .  S
C2353      C2354   1.543       .  S
C2353      C2359   1.545       .  S
C2353      C2357   1.542       .  S
C2353      C2575   1.536       .  S
C2354      H2361   1.086       .  S
C2354      C2355   1.371       .  D
C2355      C2356   1.540       .  S
C2355      C2432   1.492       .  S
C2356      C2360   1.534       .  S
C2356      C2358   1.530       .  S
C2356      H2362   1.110       .  S
C2357      H2363   1.081       .  S
C2357      C2358   1.361       .  D
C2358      C2505   1.474       .  S
C2359      H2364   1.086       .  S
C2359      C2360   1.367       .  D
C2360      C2422   1.483       .  S
C2365      C2366   1.541       .  S
C2365      C2371   1.541       .  S
C2365      C2369   1.544       .  S
C2365      C2545   1.535       .  S
C2366      H2373   1.086       .  S
C2366      C2367   1.367       .  D
C2367      C2368   1.545       .  S
C2367      C2442   1.489       .  S
C2368      C2372   1.540       .  S
C2368      C2370   1.537       .  S
C2368      H2374   1.110       .  S
C2369      H2375   1.080       .  S
C2369      C2370   1.365       .  D
C2370      C2412   1.488       .  S
C2371      H2376   1.085       .  S
C2371      C2372   1.366       .  D
C2372      C2425   1.489       .  S
C2377      C2378   1.538       .  S
C2377      C2383   1.547       .  S
C2377      C2381   1.543       .  S
C2377      C2592   1.534       .  S
C2378      H2385   1.086       .  S
C2378      C2379   1.365       .  D
C2379      C2380   1.536       .  S
C2379      C2415   1.483       .  S
C2380      C2384   1.532       .  S
C2380      C2382   1.535       .  S
C2380      H2386   1.107       .  S
C2381      H2387   1.086       .  S
C2381      C2382   1.367       .  D
C2382      C2465   1.479       .  S
C2383      H2388   1.078       .  S
C2383      C2384   1.366       .  D
C2384      C2402   1.489       .  S
C2389      C2390   1.543       .  S
C2389      C2395   1.531       .  S
C2389      C2393   1.552       .  S
C2389      C2562   1.534       .  S
C2390      H2397   1.084       .  S
C2390      C2391   1.366       .  D
C2391      C2392   1.538       .  S
C2391      C2482   1.486       .  S
C2392      C2396   1.533       .  S
C2392      C2394   1.537       .  S
C2392      H2398   1.109       .  S
C2393      H2399   1.085       .  S
C2393      C2394   1.373       .  D
C2394      C2435   1.488       .  S
C2395      H2400   1.087       .  S
C2395      C2396   1.362       .  D
C2396      C2405   1.480       .  S
C2401      C2402   1.407       .  A
C2401      C2406   1.399       .  A
C2401      H2408   1.079       .  S
C2402      C2403   1.409       .  A
C2403      C2404   1.393       .  A
C2403      F2410   1.357       .  S
C2404      C2405   1.402       .  A
C2404      H2409   1.083       .  S
C2405      C2406   1.404       .  A
C2406      F2407   1.357       .  S
C2411      C2412   1.402       .  A
C2411      C2416   1.393       .  A
C2411      H2418   1.075       .  S
C2412      C2413   1.410       .  A
C2413      C2414   1.396       .  A
C2413      F2420   1.357       .  S
C2414      C2415   1.405       .  A
C2414      H2419   1.083       .  S
C2415      C2416   1.406       .  A
C2416      F2417   1.357       .  S
C2421      C2422   1.402       .  A
C2421      C2426   1.399       .  A
C2421      H2428   1.083       .  S
C2422      C2423   1.407       .  A
C2423      C2424   1.399       .  A
C2423      F2430   1.357       .  S
C2424      C2425   1.404       .  A
C2424      H2429   1.083       .  S
C2425      C2426   1.411       .  A
C2426      F2427   1.357       .  S
C2431      C2432   1.404       .  A
C2431      C2436   1.398       .  A
C2431      H2438   1.083       .  S
C2432      C2433   1.410       .  A
C2433      C2434   1.405       .  A
C2433      F2440   1.357       .  S
C2434      C2435   1.405       .  A
C2434      H2439   1.083       .  S
C2435      C2436   1.407       .  A
C2436      F2437   1.357       .  S
C2441      C2442   1.399       .  A
C2441      C2446   1.392       .  A
C2441      H2448   1.075       .  S
C2442      C2443   1.409       .  A
C2443      C2444   1.408       .  A
C2443      F2450   1.357       .  S
C2444      C2445   1.407       .  A
C2444      H2449   1.083       .  S
C2445      C2446   1.404       .  A
C2446      F2447   1.357       .  S
C2451      C2452   1.403       .  A
C2451      C2456   1.400       .  A
C2451      H2458   1.083       .  S
C2452      C2453   1.404       .  A
C2453      C2454   1.397       .  A
C2453      F2460   1.356       .  S
C2454      C2455   1.401       .  A
C2454      H2459   1.084       .  S
C2455      C2456   1.403       .  A
C2456      F2457   1.357       .  S
C2461      C2462   1.404       .  A
C2461      C2466   1.404       .  A
C2461      H2468   1.083       .  S
C2462      C2463   1.403       .  A
C2463      C2464   1.395       .  A
C2463      F2470   1.357       .  S
C2464      C2465   1.400       .  A
C2464      H2469   1.081       .  S
C2465      C2466   1.406       .  A
C2466      F2467   1.357       .  S
C2471      C2472   1.404       .  A
C2471      C2476   1.395       .  A
C2471      H2478   1.079       .  S
C2472      C2473   1.410       .  A
C2473      C2474   1.401       .  A
C2473      F2480   1.357       .  S
C2474      C2475   1.407       .  A
C2474      H2479   1.082       .  S
C2475      C2476   1.410       .  A
C2476      F2477   1.354       .  S
C2481      C2482   1.403       .  A
C2481      C2486   1.399       .  A
C2481      H2488   1.083       .  S
C2482      C2483   1.409       .  A
C2483      C2484   1.399       .  A
C2483      F2490   1.357       .  S
C2484      C2485   1.403       .  A
C2484      H2489   1.083       .  S
C2485      C2486   1.408       .  A
C2486      F2487   1.357       .  S
C2491      C2492   1.403       .  A
C2491      C2496   1.395       .  A
C2491      H2498   1.083       .  S
C2492      C2493   1.407       .  A
C2493      C2494   1.393       .  A
C2493      F2500   1.357       .  S
C2494      C2495   1.401       .  A
C2494      H2499   1.083       .  S
C2495      C2496   1.405       .  A
C2496      F2497   1.357       .  S
C2501      C2502   1.404       .  A
C2501      C2506   1.396       .  A
C2501      H2508   1.083       .  S
C2502      C2503   1.403       .  A
C2503      C2504   1.392       .  A
C2503      F2510   1.358       .  S
C2504      C2505   1.404       .  A
C2504      H2509   1.083       .  S
C2505      C2506   1.403       .  A
C2506      F2507   1.357       .  S
C2511      C2512   1.402       .  A
C2511      C2516   1.397       .  A
C2511      H2518   1.084       .  S
C2512      C2513   1.403       .  A
C2513      C2514   1.400       .  A
C2513      F2520   1.357       .  S
C2514      C2515   1.403       .  A
C2514      H2519   1.083       .  S
C2515      C2516   1.403       .  A
C2516      F2517   1.356       .  S
C2521      C2522   1.404       .  A
C2521      C2526   1.401       .  A
C2521      H2528   1.084       .  S
C2522      C2523   1.402       .  A
C2523      C2524   1.394       .  A
C2523      F2530   1.358       .  S
C2524      C2525   1.412       .  A
C2524      H2529   1.075       .  S
C2525      C2526   1.414       .  A
C2526      F2527   1.358       .  S
C2531      C2532   1.402       .  A
C2531      C2536   1.403       .  A
C2531      H2538   1.083       .  S
C2532      C2533   1.404       .  A
C2533      C2534   1.397       .  A
C2533      F2540   1.358       .  S
C2534      C2535   1.411       .  A
C2534      H2539   1.076       .  S
C2535      C2536   1.415       .  A
C2536      F2537   1.358       .  S
C2541      C2542   1.407       .  A
C2541      C2546   1.395       .  A
C2541      H2548   1.083       .  S
C2542      C2543   1.403       .  A
C2543      C2544   1.402       .  A
C2543      F2550   1.357       .  S
C2544      C2545   1.416       .  A
C2544      H2549   1.076       .  S
C2545      C2546   1.409       .  A
C2546      F2547   1.358       .  S
C2551      C2552   1.412       .  A
C2551      C2556   1.397       .  A
C2551      H2558   1.076       .  S
C2552      C2553   1.413       .  A
C2553      C2554   1.398       .  A
C2553      F2560   1.358       .  S
C2554      C2555   1.403       .  A
C2554      H2559   1.083       .  S
C2555      C2556   1.405       .  A
C2556      F2557   1.358       .  S
C2561      C2562   1.411       .  A
C2561      C2566   1.403       .  A
C2561      H2568   1.082       .  S
C2562      C2563   1.418       .  A
C2563      C2564   1.398       .  A
C2563      F2570   1.356       .  S
C2564      C2565   1.399       .  A
C2564      H2569   1.084       .  S
C2565      C2566   1.406       .  A
C2566      F2567   1.357       .  S
C2571      C2572   1.408       .  A
C2571      C2576   1.398       .  A
C2571      H2578   1.083       .  S
C2572      C2573   1.403       .  A
C2573      C2574   1.400       .  A
C2573      F2580   1.358       .  S
C2574      C2575   1.416       .  A
C2574      H2579   1.076       .  S
C2575      C2576   1.409       .  A
C2576      F2577   1.358       .  S
C2581      C2582   1.405       .  A
C2581      C2586   1.406       .  A
C2581      H2588   1.083       .  S
C2582      C2583   1.408       .  A
C2583      C2584   1.393       .  A
C2583      F2590   1.358       .  S
C2584      C2585   1.409       .  A
C2584      H2589   1.076       .  S
C2585      C2586   1.415       .  A
C2586      F2587   1.357       .  S
C2591      C2592   1.414       .  A
C2591      C2596   1.397       .  A
C2591      H2598   1.075       .  S
C2592      C2593   1.414       .  A
C2593      C2594   1.398       .  A
C2593      F2600   1.358       .  S
C2594      C2595   1.401       .  A
C2594      H2599   1.084       .  S
C2595      C2596   1.402       .  A
C2596      F2597   1.358       .  S
