geometry optimzed in LAMMPS
_audit_creation_date              2020-12-01 
_audit_creation_method            'lammps2cif' 
_symmetry_space_group_name_H-M    'P1' 
_symmetry_Int_Tables_number       1 
_symmetry_cell_setting            triclinic 
loop_ 
_symmetry_equiv_pos_as_xyz 
  x,y,z 
_cell_length_a                    33.59883702 
_cell_length_b                    35.443250424769225 
_cell_length_c                    35.06845958733181 
_cell_angle_alpha                 89.81597113631666 
_cell_angle_beta                  90.41875217596818 
_cell_angle_gamma                 83.40841619030209 
loop_ 
_atom_site_label 
_atom_site_type_symbol 
_atom_site_fract_x 
_atom_site_fract_y 
_atom_site_fract_z 
_atom_site_charge 
C1          C  0.86472655  0.86740035  0.62131663    -0.02600
C2          C  0.49982045  0.56560432  0.62575218    -0.02600
C3          C  0.83467905  0.55049229  0.94326627    -0.02600
C4          C  0.51071771  0.86186638  0.93990131    -0.02600
C5          C  0.99701003  0.04782977  0.43829587    -0.02600
C6          C  0.01218917  0.35252100  0.11467489    -0.02600
C7          C  0.32854711  0.05576881  0.10730774    -0.02600
C8          C  0.36509057  0.39321632  0.43259623    -0.02600
Zr9        Zr  0.87286324  0.92070697  0.98467741     2.17500
O10         O  0.81905742  0.93688954  0.93832349    -0.51500
O11         O  0.87503110  0.85270021  0.97790988    -0.74700
O12         O  0.89600775  0.91083726  0.91996514    -0.81500
O13         O  0.79835497  0.93242742  0.06694606    -0.83200
O14         O  0.95869274  0.92852118  0.91444771    -0.78800
O15         O  0.80515768  0.91479854  0.00463883    -0.90500
O16         O  0.92333944  0.82506654  0.01787042    -0.76400
O17         O  0.94181388  0.89712900  0.98997062    -0.85900
O18         O  0.88207959  0.89749628  0.04830911    -0.85600
O19         O  0.90801856  0.97395475  0.96982437    -0.72400
O20         O  0.85219963  0.97352369  0.02513315    -0.84500
Zr21       Zr  0.96847729  0.98161754  0.07979060     2.26400
Zr22       Zr  0.97766333  0.95019525  0.97708885     2.06300
Zr23       Zr  0.86347639  0.95051887  0.08902555     2.10000
Zr24       Zr  0.95119105  0.87493985  0.05365831     1.78800
O25         O  0.81305664  0.99923178  0.11313018    -0.93300
O26         O  0.01105934  0.83727613  0.03003555    -0.41100
O27         O  0.93333727  0.92805935  0.09462305    -0.77700
O28         O  0.98896673  0.92718450  0.04105782    -0.96400
O29         O  0.95811926  0.00416990  0.01640837    -0.89700
O30         O  0.89900785  0.00399158  0.07563271    -0.92600
C31         C  0.89562397  0.82356890  0.99265041     1.01200
C32         C  0.78468153  0.92051121  0.03521919     1.14100
C33         C  0.92743640  0.91549033  0.90082760     1.04900
O34         O  0.02940147  0.90097267  0.95621676    -0.94700
O35         O  0.04212755  0.97007592  0.99551267    -0.90500
O36         O  0.03493718  0.98979639  0.05696173    -0.83600
C37         C  0.05520237  0.98390886  0.02633476     1.11500
O38         O  0.83275595  0.04408511  0.96827744    -0.96700
Zr39       Zr  0.88859940  0.02605416  0.01178198     1.88900
O40         O  0.96692121  0.05050966  0.08268050    -0.73400
O41         O  0.99630416  0.99845144  0.93326455    -0.52600
O42         O  0.90869197  0.06276447  0.95788330    -0.97300
O43         O  0.83265792  0.06594463  0.04014340    -0.54500
O44         O  0.91889451  0.07723303  0.04200704    -0.73900
C45         C  0.94698153  0.07940163  0.06656117     0.98500
O46         O  0.02084292  0.97094991  0.12845594    -0.62700
O47         O  0.84536963  0.90187100  0.13274856    -0.57500
O48         O  0.94961678  0.98552969  0.14606622    -0.94200
O49         O  0.88794338  0.96569167  0.15281248    -0.92600
O50         O  0.92455766  0.83493865  0.10157442    -0.93000
O51         O  0.99874356  0.85511943  0.10460935    -0.91700
C52         C  0.91995143  0.97776951  0.16629365     1.17300
H53         H  0.86569112  0.87736242  0.05328817     0.33300
H54         H  0.01703697  0.91876636  0.04522916     0.44100
H55         H  0.89216438  0.02404369  0.09383509     0.37600
H56         H  0.90237193  0.98221590  0.94386804     0.34100
H57         H  0.00830613  0.81097238  0.03831863     0.25900
H58         H  0.00881925  0.98412203  0.91141665     0.31800
H59         H  0.89276953  0.08792770  0.96030164     0.37700
H60         H  0.93325885  0.80858054  0.09340435     0.32200
H61         H  0.87110356  0.89082362  0.14427344     0.31100
H62         H  0.79476283  0.98508954  0.12815298     0.32800
H63         H  0.83630066  0.09213196  0.03212140     0.31700
H64         H  0.01276266  0.87771984  0.10960887     0.35700
H65         H  0.04099409  0.95099005  0.11829465     0.28500
H66         H  0.81784329  0.91369881  0.92287500     0.32700
H67         H  0.82564575  0.01972697  0.95802115     0.35500
H68         H  0.83103337  0.91610244  0.15374549     0.28200
H69         H  0.03436157  0.99434506  0.12920791     0.41000
H70         H  0.04472503  0.89290562  0.97963980     0.31100
H71         H  0.00726866  0.83692961  0.00203109     0.38700
H72         H  0.83812157  0.06549768  0.06791512     0.30600
H73         H  0.97054657  0.01109372  0.92323424     0.30600
H74         H  0.82907038  0.95548788  0.92071033     0.30900
Zr75       Zr  0.88061765  0.50943463  0.56466214     2.17500
O76         O  0.83226201  0.56637420  0.56381465    -0.51500
O77         O  0.88614695  0.51493983  0.63359962    -0.74700
O78         O  0.81311285  0.49808081  0.57916031    -0.81500
O79         O  0.96354132  0.56976396  0.53527965    -0.83200
O80         O  0.80262329  0.43821300  0.56177396    -0.78800
O81         O  0.90175636  0.57206359  0.56165510    -0.90500
O82         O  0.91767191  0.45900715  0.65404228    -0.76400
O83         O  0.88636736  0.44548042  0.58630889    -0.85900
O84         O  0.94935239  0.49451463  0.58055349    -0.85600
O85         O  0.85714369  0.47375349  0.51241436    -0.72400
O86         O  0.91538309  0.51874782  0.50655426    -0.84500
Zr87       Zr  0.97051500  0.40250450  0.49156211     2.26400
Zr88       Zr  0.86548627  0.40904300  0.53413186     2.06300
Zr89       Zr  0.98469429  0.50269955  0.52237855     2.10000
Zr90       Zr  0.95528808  0.43005368  0.60088663     1.78800
O91         O  0.01122286  0.54464831  0.47627202    -0.93300
O92         O  0.93583510  0.37865745  0.64047006    -0.41100
O93         O  0.99282181  0.43810982  0.54400452    -0.77700
O94         O  0.93508379  0.39279206  0.54944558    -0.96400
O95         O  0.90122864  0.41680491  0.47608726    -0.89700
O96         O  0.96336393  0.46661507  0.47003052    -0.92600
C97         C  0.89769584  0.49132633  0.66027238     1.01200
C98         C  0.93176491  0.58779260  0.54959831     1.14100
C99         C  0.79116607  0.47114234  0.57578151     1.04900
O100        O  0.84706049  0.36606709  0.58363838    -0.94700
O101        O  0.88454864  0.34321176  0.51591628    -0.90500
O102        O  0.94703489  0.34069466  0.49058363    -0.83600
C103        C  0.91617335  0.32547915  0.50113516     1.11500
O104        O  0.84006130  0.53252707  0.44557460    -0.96700
Zr105      Zr  0.89407148  0.48120807  0.45522839     1.88900
O106        O  0.96885415  0.40024488  0.42203412    -0.73400
O107        O  0.81291522  0.39385481  0.49052692    -0.52600
O108        O  0.83899288  0.45977328  0.41868406    -0.97300
O109        O  0.91710625  0.53112447  0.41583195    -0.54500
O110        O  0.92226861  0.44701272  0.40011080    -0.73900
C111        C  0.94939899  0.41903389  0.39511465     0.98500
O112        O  0.02417269  0.34982646  0.49366495    -0.62700
O113        O  0.03424577  0.51656156  0.56995411    -0.57500
O114        O  0.04061605  0.41021675  0.48432380    -0.94200
O115        O  0.04644000  0.47253262  0.49342247    -0.92600
O116        O  0.00937842  0.45384906  0.63675753    -0.93000
O117        O  0.00686343  0.37748534  0.61411314    -0.91700
C118        C  0.06096728  0.43860053  0.48423446     1.17300
H119        H  0.95693941  0.51096734  0.60056116     0.33300
H120        H  0.94009462  0.36675410  0.55787390     0.44100
H121        H  0.97974260  0.46985443  0.44800173     0.37600
H122        H  0.82925765  0.48187046  0.50703228     0.34100
H123        H  0.94412419  0.38467247  0.66670449     0.25900
H124        H  0.79420831  0.38138750  0.50673114     0.31800
H125        H  0.84204137  0.43183391  0.42195574     0.37700
H126        H  0.03246120  0.45111614  0.61919208     0.32200
H127        H  0.04685786  0.53792842  0.55882728     0.31100
H128        H  0.03421512  0.55422554  0.48941459     0.32800
H129        H  0.92789414  0.51837441  0.39240588     0.31700
H130        H  0.01262871  0.36550560  0.58898032     0.35700
H131        H  0.01897208  0.33449388  0.51636812     0.28500
H132        H  0.81882163  0.56763580  0.58886352     0.32700
H133        H  0.83710196  0.53561166  0.41758848     0.35500
H134        H  0.01904812  0.52806506  0.59186693     0.28200
H135        H  0.01980450  0.33354503  0.47146952     0.41000
H136        H  0.83992480  0.38247733  0.60592201     0.31100
H137        H  0.90620168  0.38275454  0.64090000     0.38700
H138        H  0.94098775  0.53842349  0.42939493     0.30600
H139        H  0.79802896  0.41872146  0.48367856     0.30600
H140        H  0.81129459  0.56157009  0.54504965     0.30900
Zr141      Zr  0.46034924  0.49022336  0.96789759     2.17500
O142        O  0.51168769  0.48090994  0.91879454    -0.51500
O143        O  0.45896836  0.55947651  0.96598021    -0.74700
O144        O  0.43361648  0.49670951  0.90377299    -0.81500
O145        O  0.53664210  0.48764392  0.04835163    -0.83200
O146        O  0.37583906  0.46911789  0.89862912    -0.78800
O147        O  0.52963975  0.49251241  0.98412217    -0.90500
O148        O  0.41171892  0.58423337  0.00760440    -0.76400
O149        O  0.39012518  0.50750829  0.97277032    -0.85900
O150        O  0.45129144  0.51415631  0.03093662    -0.85600
O151        O  0.43028921  0.43295775  0.95611211    -0.72400
O152        O  0.48673812  0.43945792  0.00944019    -0.84500
Zr153      Zr  0.37443982  0.42359809  0.06717387     2.26400
Zr154      Zr  0.35934035  0.45029245  0.96316556     2.06300
Zr155      Zr  0.47564413  0.46309659  0.07251434     2.10000
Zr156      Zr  0.38108469  0.53147051  0.03561879     1.78800
O157        O  0.52778246  0.41389544  0.09355020    -0.93300
O158        O  0.32687754  0.56763676  0.00001200    -0.41100
O159        O  0.40472946  0.48084546  0.07859784    -0.77700
O160        O  0.34851963  0.47535879  0.02612288    -0.96400
O161        O  0.38489821  0.39919436  0.00460174    -0.89700
O162        O  0.44488048  0.40586156  0.06277263    -0.92600
C163        C  0.43971505  0.58767156  0.98347574     1.01200
C164        C  0.55002349  0.49431467  0.01487946     1.14100
C165        C  0.40414935  0.48629671  0.88471054     1.04900
O166        O  0.30343056  0.49342096  0.93845563    -0.94700
O167        O  0.29669495  0.42842455  0.98613937    -0.90500
O168        O  0.30573841  0.41707899  0.04966452    -0.83600
C169        C  0.28448974  0.41862293  0.01911007     1.11500
O170        O  0.51156356  0.37063695  0.95566637    -0.96700
Zr171      Zr  0.45548438  0.38307470  0.99928696     1.88900
O172        O  0.38130711  0.35433448  0.06940378    -0.73400
O173        O  0.34590339  0.39756966  0.92244378    -0.52600
O174        O  0.43897708  0.34390346  0.94583318    -0.97300
O175        O  0.51433150  0.34692847  0.02805341    -0.54500
O176        O  0.43061649  0.32940154  0.03038339    -0.73900
C177        C  0.40252975  0.32597053  0.05421770     0.98500
O178        O  0.32026767  0.41757619  0.11205709    -0.62700
O179        O  0.49693763  0.50835508  0.11842747    -0.57500
O180        O  0.39355074  0.43100535  0.13374059    -0.94200
O181        O  0.45362433  0.45444888  0.13761911    -0.92600
O182        O  0.39409191  0.57086886  0.08998717    -0.93000
O183        O  0.32420069  0.54822735  0.07730322    -0.91700
C184        C  0.42254288  0.44274308  0.15271803     1.17300
H185        H  0.46632657  0.53528099  0.03586008     0.33300
H186        H  0.32029383  0.48246724  0.03031865     0.44100
H187        H  0.45381935  0.38681996  0.08168196     0.37600
H188        H  0.43616005  0.42429441  0.93046102     0.34100
H189        H  0.32419117  0.59317878  0.01172218     0.25900
H190        H  0.32966227  0.40948893  0.90100879     0.31800
H191        H  0.45967270  0.32163762  0.94643636     0.37700
H192        H  0.41136957  0.55377958  0.10720886     0.32200
H193        H  0.52509476  0.49886908  0.12474242     0.31100
H194        H  0.53997788  0.42482692  0.11615290     0.32800
H195        H  0.51310887  0.32045719  0.01958442     0.31700
H196        H  0.32268159  0.52523948  0.09310787     0.35700
H197        H  0.33081711  0.39831442  0.13120072     0.28500
H198        H  0.50800463  0.50388108  0.90241333     0.32700
H199        H  0.51720391  0.39607721  0.94696668     0.35500
H200        H  0.49859738  0.53197433  0.10366682     0.28200
H201        H  0.31613343  0.44189391  0.12601904     0.41000
H202        H  0.29118998  0.47871092  0.91845162     0.31100
H203        H  0.33801648  0.57154201  0.97442092     0.38700
H204        H  0.50886149  0.34633034  0.05572169     0.30600
H205        H  0.37209055  0.38853144  0.91096881     0.30600
H206        H  0.50416597  0.46002394  0.90252484     0.30900
Zr207      Zr  0.48942681  0.92936559  0.56095826     2.17500
O208        O  0.54118426  0.87595164  0.55218463    -0.51500
O209        O  0.49110106  0.92539699  0.63044911    -0.74700
O210        O  0.55669473  0.94676984  0.56982257    -0.81500
O211        O  0.40350538  0.86787212  0.55556310    -0.83200
O212        O  0.56214181  0.00385268  0.54144073    -0.78800
O213        O  0.46997568  0.86632202  0.56906766    -0.90500
O214        O  0.44579347  0.97248846  0.65238377    -0.76400
O215        O  0.48293707  0.99494999  0.57655873    -0.85900
O216        O  0.42217022  0.94339765  0.58207408    -0.85600
O217        O  0.50382387  0.96162939  0.50315199    -0.72400
O218        O  0.44769339  0.91474771  0.50845255    -0.84500
Zr219      Zr  0.38771841  0.02881362  0.48684482     2.26400
Zr220      Zr  0.49536964  0.02798873  0.51880788     2.06300
Zr221      Zr  0.38017440  0.93087835  0.52932962     2.10000
Zr222      Zr  0.41592061  0.00879198  0.59768045     1.78800
O223        O  0.35974852  0.88599427  0.48266550    -0.93300
O224        O  0.44876090  0.05267360  0.63719503    -0.41100
O225        O  0.37287499  0.99711450  0.54502356    -0.77700
O226        O  0.42804058  0.04345822  0.54075447    -0.96400
O227        O  0.45450006  0.01436728  0.46523829    -0.89700
O228        O  0.39345302  0.96321295  0.47145282    -0.92600
C229        C  0.47209949  0.94353473  0.65765647     1.01200
C230        C  0.43739908  0.85075391  0.56701865     1.14100
C231        C  0.57668224  0.97372378  0.55943526     1.04900
O232        O  0.52091944  0.07465896  0.56039440    -0.94700
O233        O  0.47268278  0.09260312  0.49722720    -0.90500
O234        O  0.40792506  0.09180331  0.47868357    -0.83600
C235        C  0.43904442  0.10871248  0.48432590     1.11500
O236        O  0.51200913  0.89572989  0.43774434    -0.96700
Zr237      Zr  0.46076997  0.94821121  0.45121267     1.88900
O238        O  0.38169578  0.02548345  0.41758656    -0.73400
O239        O  0.54082250  0.03853137  0.46708002    -0.52600
O240        O  0.51276313  0.96642287  0.40919896    -0.97300
O241        O  0.43400555  0.89535970  0.41944918    -0.54500
O242        O  0.42542331  0.97695959  0.39581740    -0.73900
C243        C  0.39789370  0.00473736  0.39072235     0.98500
O244        O  0.33405522  0.08083265  0.47880240    -0.62700
O245        O  0.33046710  0.91447199  0.57490679    -0.57500
O246        O  0.31833061  0.01786841  0.48776058    -0.94200
O247        O  0.31238763  0.96021857  0.51377770    -0.92600
O248        O  0.35561925  0.99520086  0.63063886    -0.93000
O249        O  0.37346142  0.06686120  0.61377620    -0.91700
C250        C  0.29746875  0.99174647  0.49836043     1.17300
H251        H  0.41638214  0.92789893  0.60358680     0.33300
H252        H  0.42317669  0.07002887  0.54714393     0.44100
H253        H  0.37448563  0.95837841  0.45175150     0.37600
H254        H  0.53116403  0.95391387  0.49576687     0.34100
H255        H  0.43686931  0.05081855  0.66279523     0.25900
H256        H  0.52334744  0.05022800  0.44636001     0.31800
H257        H  0.53445280  0.97272003  0.42647055     0.37700
H258        H  0.35827000  0.00561782  0.65657726     0.32200
H259        H  0.32061818  0.89135336  0.56433251     0.31100
H260        H  0.34409911  0.90164290  0.46313225     0.32800
H261        H  0.40601908  0.90492388  0.41259234     0.31700
H262        H  0.35798592  0.07382837  0.59015205     0.35700
H263        H  0.33815992  0.10020712  0.49829873     0.28500
H264        H  0.55775192  0.87457479  0.57573538     0.32700
H265        H  0.51303278  0.87957168  0.46089975     0.35500
H266        H  0.34591736  0.90557121  0.59801319     0.28200
H267        H  0.33821115  0.09289002  0.45384201     0.41000
H268        H  0.50166721  0.07767044  0.58169573     0.31100
H269        H  0.47668940  0.04063798  0.64030185     0.38700
H270        H  0.43151604  0.87648865  0.43992136     0.30600
H271        H  0.55574346  0.05929241  0.47626319     0.30600
H272        H  0.55880347  0.88397027  0.53189427     0.30900
C273        C  0.31691859  0.39775225  0.43599538     0.01200
C274        C  0.28887276  0.41522103  0.40739233     0.04000
C275        C  0.24761586  0.42401650  0.41571400    -0.12000
C276        C  0.23107030  0.40938304  0.44827004     0.23300
C277        C  0.25590449  0.38666024  0.47336454    -0.12600
C278        C  0.29803677  0.38253779  0.46896013     0.04700
C279        C  0.18721711  0.41752709  0.45619054     0.27100
C280        C  0.17354559  0.44489172  0.48356747    -0.13300
C281        C  0.13281224  0.45100418  0.49318806     0.05200
C282        C  0.10430610  0.43146519  0.47382967    -0.09300
C283        C  0.11807645  0.40411710  0.44583074     0.06100
C284        C  0.15939837  0.39672652  0.43780483    -0.13600
Br285      Br  0.23106985  0.36258088  0.51535229    -0.05700
Br286      Br  0.29926988  0.42121624  0.35358451    -0.00100
Br287      Br  0.11793223  0.48358608  0.53604424     0.00400
Br288      Br  0.17844031  0.35712662  0.40243711    -0.04000
Br289      Br  0.32684550  0.35986931  0.51258795     0.00500
Br290      Br  0.21226911  0.45602361  0.38189536    -0.03300
Br291      Br  0.21056808  0.47387753  0.50918213    -0.04200
Br292      Br  0.08129947  0.37662542  0.41737249    -0.00200
C293        C  0.37978157  0.40459044  0.39107902     0.01200
C294        C  0.39597641  0.37752289  0.36262579     0.04000
C295        C  0.39763139  0.38852843  0.32420241    -0.12000
C296        C  0.39881863  0.42672046  0.31457007     0.23300
C297        C  0.39325858  0.45404803  0.34334978    -0.12600
C298        C  0.37928735  0.44409012  0.37959738     0.04700
C299        C  0.40740209  0.43716303  0.27439978     0.27100
C300        C  0.44477572  0.42404287  0.25819039    -0.13300
C301        C  0.44988577  0.42532660  0.21837729     0.05200
C302        C  0.41905779  0.44338060  0.19490038    -0.09300
C303        C  0.38392249  0.46133645  0.21191273     0.06100
C304        C  0.37729936  0.45683040  0.25118390    -0.13600
Br305      Br  0.40425687  0.50540893  0.33250996    -0.05700
Br306      Br  0.42896985  0.32954883  0.37151606    -0.00100
Br307      Br  0.49776348  0.39947455  0.19615748     0.00400
Br308      Br  0.32628427  0.47648672  0.27235575    -0.04000
Br309      Br  0.35494700  0.48689450  0.40830214     0.00500
Br310      Br  0.39986724  0.35040646  0.28454624    -0.03300
Br311      Br  0.48874076  0.40374540  0.29075704    -0.04200
Br312      Br  0.34572067  0.49392791  0.18182269    -0.00200
C313        C  0.43421848  0.14998638  0.47709651     0.01200
C314        C  0.41375435  0.17442698  0.50393779     0.04000
C315        C  0.40468828  0.21332711  0.49570809    -0.12000
C316        C  0.41608583  0.22810520  0.46054485     0.23300
C317        C  0.43702899  0.20370943  0.43385802    -0.12600
C318        C  0.44541846  0.16457484  0.44187742     0.04700
C319        C  0.40479895  0.26913043  0.45177312     0.27100
C320        C  0.37084387  0.28080613  0.42957125    -0.13300
C321        C  0.35923343  0.31985986  0.42239210     0.05200
C322        C  0.37879651  0.34913997  0.44149083    -0.09300
C323        C  0.40967995  0.33499413  0.46889751     0.06100
C324        C  0.42550978  0.29638974  0.46926307    -0.13600
Br325      Br  0.45378105  0.22382527  0.38624819    -0.05700
Br326      Br  0.39668366  0.15427954  0.55154624    -0.00100
Br327      Br  0.31947699  0.32967195  0.38237027     0.00400
Br328      Br  0.47549167  0.27979036  0.49545991    -0.04000
Br329      Br  0.46976495  0.13039424  0.40381300     0.00500
Br330      Br  0.37553953  0.24630809  0.53225570    -0.03300
Br331      Br  0.34139843  0.24220587  0.40745525    -0.04200
Br332      Br  0.42543508  0.36068844  0.51441384    -0.00200
C333        C  0.39315119  0.28686459  0.06423696     0.01200
C334        C  0.38033028  0.27846274  0.10148134     0.04000
C335        C  0.36798149  0.24261011  0.10978723    -0.12000
C336        C  0.37095879  0.21379067  0.08202027     0.23300
C337        C  0.38509156  0.22148295  0.04541440    -0.12600
C338        C  0.39498626  0.25795065  0.03614847     0.04700
C339        C  0.35847507  0.17554885  0.09089520     0.27100
C340        C  0.38371504  0.14902155  0.11196860    -0.13300
C341        C  0.37408207  0.11148131  0.11711508     0.05200
C342        C  0.33718525  0.09932541  0.10210410    -0.09300
C343        C  0.30919456  0.12980262  0.08573712     0.06100
C344        C  0.32137320  0.16608218  0.07814474    -0.13600
Br345      Br  0.38983542  0.18211220  0.00727790    -0.05700
Br346      Br  0.38138412  0.31486130  0.14233446    -0.00100
Br347      Br  0.41694290  0.07737902  0.13964374     0.00400
Br348      Br  0.28643165  0.20491079  0.05105228    -0.04000
Br349      Br  0.40779624  0.26789854  0.98372398     0.00500
Br350      Br  0.34584806  0.23307504  0.15907828    -0.03300
Br351      Br  0.43374766  0.16416350  0.13133691    -0.04200
Br352      Br  0.25154427  0.12964201  0.07899781    -0.00200
C353        C  0.33659591  0.04695679  0.15206884     0.01200
C354        C  0.36233766  0.01445504  0.16750777     0.04000
C355        C  0.36346337  0.00654825  0.20703545    -0.12000
C356        C  0.34977913  0.03454246  0.23322022     0.23300
C357        C  0.32975784  0.06883338  0.21994843    -0.12600
C358        C  0.32054212  0.07413359  0.18067631     0.04700
C359        C  0.36070843  0.02908497  0.27440323     0.27100
C360        C  0.33316878  0.01715765  0.30081388    -0.13300
C361        C  0.34504990  0.00947932  0.33905833     0.05200
C362        C  0.38450430  0.01383635  0.35103825    -0.09300
C363        C  0.41170103  0.02637721  0.32474230     0.06100
C364        C  0.39994517  0.03378769  0.28659845    -0.13600
Br365      Br  0.31428396  0.10842012  0.25670712    -0.05700
Br366      Br  0.40633259  0.98452533  0.14192370    -0.00100
Br367      Br  0.30801275  0.99099742  0.37450467     0.00400
Br368      Br  0.43803803  0.04955147  0.25059345    -0.04000
Br369      Br  0.28134177  0.11725713  0.17015678     0.00500
Br370      Br  0.38715157  0.95770166  0.22659558    -0.03300
Br371      Br  0.27972833  0.01007590  0.28409612    -0.04200
Br372      Br  0.46503266  0.03425899  0.34125222    -0.00200
C373        C  0.09635261  0.99434652  0.02760130     0.01200
C374        C  0.12831156  0.96715907  0.03849473     0.04000
C375        C  0.16561682  0.97883697  0.04860393    -0.12000
C376        C  0.17080415  0.01777413  0.04828579     0.23300
C377        C  0.13966727  0.04462910  0.03477157    -0.12600
C378        C  0.10252312  0.03284815  0.02433146     0.04700
C379        C  0.20853358  0.03036538  0.06349537     0.27100
C380        C  0.21358129  0.03487474  0.10273323    -0.13300
C381        C  0.25162477  0.03992011  0.11830989     0.05200
C382        C  0.28400523  0.04935248  0.09374579    -0.09300
C383        C  0.27509231  0.04869037  0.05310386     0.06100
C384        C  0.23960059  0.03608046  0.03892205    -0.13600
Br385      Br  0.14748544  0.09762430  0.03203072    -0.05700
Br386      Br  0.12021853  0.91424103  0.04134988    -0.00100
Br387      Br  0.25555928  0.02410301  0.17143023     0.00400
Br388      Br  0.23261016  0.02662919  0.98499355    -0.04000
Br389      Br  0.05942020  0.06944745  0.00664397     0.00500
Br390      Br  0.20941362  0.94176747  0.06393601    -0.03300
Br391      Br  0.16743175  0.03173581  0.13514011    -0.04200
Br392      Br  0.30729799  0.06849409  0.01407266    -0.00200
C393        C  0.95978743  0.40851745  0.35544036     0.01200
C394        C  0.99349608  0.42173502  0.33846330     0.04000
C395        C  0.00341553  0.41217409  0.30050465    -0.12000
C396        C  0.97963484  0.38939801  0.27935396     0.23300
C397        C  0.94543665  0.37676437  0.29610342    -0.12600
C398        C  0.93536203  0.38662661  0.33397718     0.04700
C399        C  0.98886578  0.38088661  0.23862609     0.27100
C400        C  0.97168366  0.40532348  0.21040720    -0.13300
C401        C  0.97431851  0.39492288  0.17164145     0.05200
C402        C  0.00299310  0.36328542  0.15883381    -0.09300
C403        C  0.02034328  0.33887554  0.18956491     0.06100
C404        C  0.01266149  0.34767486  0.22841657    -0.13600
Br405      Br  0.91192278  0.34675159  0.26672194    -0.05700
Br406      Br  0.02454562  0.45500088  0.36649293    -0.00100
Br407      Br  0.92809481  0.41998620  0.14394738     0.00400
Br408      Br  0.03729826  0.31585312  0.26922574    -0.04000
Br409      Br  0.88741458  0.37134256  0.35611049     0.00500
Br410      Br  0.04864389  0.43136985  0.27675404    -0.03300
Br411      Br  0.94228861  0.45314957  0.22622766    -0.04200
Br412      Br  0.05880362  0.29466698  0.18247220    -0.00200
C413        C  0.24342174  0.40777406  0.02352773     0.01200
C414        C  0.23843031  0.36938621  0.03058645     0.04000
C415        C  0.20141623  0.35933398  0.04350422    -0.12000
C416        C  0.16933844  0.38769176  0.05046983     0.23300
C417        C  0.17372039  0.42595117  0.04185521    -0.12600
C418        C  0.21055798  0.43590508  0.02806521     0.04700
C419        C  0.13129707  0.37732880  0.06751937     0.27100
C420        C  0.10083847  0.36687367  0.04405746    -0.13300
C421        C  0.06496641  0.35656856  0.05974108     0.05200
C422        C  0.05646365  0.35928630  0.10035764    -0.09300
C423        C  0.08910891  0.37093158  0.12369364     0.06100
C424        C  0.12624218  0.37747445  0.10708607    -0.13600
Br425      Br  0.12958600  0.46475053  0.05041979    -0.05700
Br426      Br  0.28304884  0.33062501  0.02378792    -0.00100
Br427      Br  0.03189296  0.33362926  0.02332418     0.00400
Br428      Br  0.17183600  0.38752963  0.13830558    -0.04000
Br429      Br  0.21680326  0.48824927  0.01722762     0.00500
Br430      Br  0.19487597  0.30675969  0.05284386    -0.03300
Br431      Br  0.11023202  0.36474552  0.98952063    -0.04200
Br432      Br  0.08666738  0.38548873  0.17694978    -0.00200
C433        C  0.95723478  0.11789263  0.07662668     0.01200
C434        C  0.96260077  0.12800967  0.11516740     0.04000
C435        C  0.97397789  0.16402029  0.12431758    -0.12000
C436        C  0.97682065  0.19134211  0.09536640     0.23300
C437        C  0.97047158  0.18160397  0.05701803    -0.12600
C438        C  0.96201537  0.14478834  0.04758006     0.04700
C439        C  0.98771242  0.23005609  0.10453590     0.27100
C440        C  0.95981607  0.25729093  0.12100369    -0.13300
C441        C  0.96825678  0.29530349  0.12536716     0.05200
C442        C  0.00506648  0.30816946  0.11136100    -0.09300
C443        C  0.03521273  0.27741488  0.09915118     0.06100
C444        C  0.02565441  0.23961348  0.09532334    -0.13600
Br445      Br  0.97436658  0.21867764  0.01704920    -0.05700
Br446      Br  0.95206153  0.09367004  0.15585091    -0.00100
Br447      Br  0.92446300  0.32814583  0.14689703     0.00400
Br448      Br  0.06526679  0.19848091  0.07895056    -0.04000
Br449      Br  0.95984212  0.13104915  0.99442538     0.00500
Br450      Br  0.98706788  0.17547121  0.17638147    -0.03300
Br451      Br  0.90821131  0.24212567  0.13551602    -0.04200
Br452      Br  0.09267876  0.27967881  0.09369459    -0.00200
C453        C  0.98272729  0.09057163  0.45110568     0.01200
C454        C  0.95207333  0.10110018  0.47955442     0.04000
C455        C  0.93456055  0.13879764  0.48256131    -0.12000
C456        C  0.95464582  0.16807598  0.46870642     0.23300
C457        C  0.98982016  0.15977117  0.44786010    -0.12600
C458        C  0.00248572  0.12203139  0.43678967     0.04700
C459        C  0.94065626  0.20766114  0.47915460     0.27100
C460        C  0.91533299  0.23072323  0.45423128    -0.13300
C461        C  0.90461384  0.26911739  0.46295153     0.05200
C462        C  0.91891708  0.28429078  0.49663358    -0.09300
C463        C  0.94257251  0.26078995  0.52256339     0.06100
C464        C  0.95353531  0.22242406  0.51379553    -0.13600
Br465      Br  0.01939874  0.20130581  0.43321714    -0.05700
Br466      Br  0.94154138  0.07298595  0.52554544    -0.00100
Br467      Br  0.87231893  0.30161522  0.42786335     0.00400
Br468      Br  0.98781090  0.19049313  0.54815996    -0.04000
Br469      Br  0.04389869  0.11761066  0.39853137     0.00500
Br470      Br  0.88450844  0.15111739  0.50939176    -0.03300
Br471      Br  0.89665545  0.21012468  0.40753318    -0.04200
Br472      Br  0.96128645  0.28162920  0.56929791    -0.00200
C473        C  0.04504859  0.04308583  0.44226323     0.01200
C474        C  0.06391327  0.05334475  0.47760249     0.04000
C475        C  0.10506464  0.04299440  0.48477891    -0.12000
C476        C  0.13034180  0.02783675  0.45588747     0.23300
C477        C  0.11481731  0.02355276  0.41924362    -0.12600
C478        C  0.07299313  0.03078068  0.41186336     0.04700
C479        C  0.17375504  0.01778161  0.46454283     0.27100
C480        C  0.19707692  0.04664370  0.47507123    -0.13300
C481        C  0.23485802  0.03711146  0.49188286     0.05200
C482        C  0.25352192  0.99922051  0.49089791    -0.09300
C483        C  0.23077089  0.97022368  0.47849469     0.06100
C484        C  0.19039660  0.97942910  0.46726389    -0.13600
Br485      Br  0.15264309  0.00873479  0.37883713    -0.05700
Br486      Br  0.03680179  0.07863501  0.52021149    -0.00100
Br487      Br  0.25712914  0.07518479  0.52195857     0.00400
Br488      Br  0.15771516  0.93937418  0.45624595    -0.04000
Br489      Br  0.06020948  0.02917645  0.35777661     0.00500
Br490      Br  0.12672934  0.04492102  0.53639672    -0.03300
Br491      Br  0.17675715  0.09946428  0.46749356    -0.04200
Br492      Br  0.25388498  0.91787476  0.47611400    -0.00200
C493        C  0.92432125  0.98297987  0.20807649     0.01200
C494        C  0.89564430  0.00653737  0.22899948     0.04000
C495        C  0.90347686  0.01539015  0.26738676    -0.12000
C496        C  0.94127590  0.00335264  0.28402646     0.23300
C497        C  0.96948852  0.97912021  0.26327257    -0.12600
C498        C  0.96009386  0.96743105  0.22637666     0.04700
C499        C  0.95192791  0.01616674  0.32295488     0.27100
C500        C  0.95724945  0.05412270  0.33012593    -0.13300
C501        C  0.96494824  0.06598983  0.36769933     0.05200
C502        C  0.98196420  0.03857366  0.39609668    -0.09300
C503        C  0.98110422  0.99933810  0.38482344     0.06100
C504        C  0.95971788  0.98976113  0.35237709    -0.13600
Br505      Br  0.02215619  0.96325775  0.28425269    -0.05700
Br506      Br  0.84688626  0.02882129  0.20462853    -0.00100
Br507      Br  0.94098028  0.11740088  0.37613470     0.00400
Br508      Br  0.94252788  0.93972037  0.34740995    -0.04000
Br509      Br  0.99560567  0.92838305  0.20173822     0.00500
Br510      Br  0.86252397  0.04405675  0.29718761    -0.03300
Br511      Br  0.95359045  0.09012161  0.28822193    -0.04200
Br512      Br  0.01382362  0.95651205  0.40676991    -0.00200
C513        C  0.35632483  0.02666295  0.08057935     0.01200
C514        C  0.34774879  0.98740615  0.07752117     0.04000
C515        C  0.36972933  0.96104762  0.05316567    -0.12000
C516        C  0.40255171  0.97111576  0.03293612     0.23300
C517        C  0.41240658  0.00832877  0.03517094    -0.12600
C518        C  0.38821464  0.03655414  0.05569155     0.04700
C519        C  0.42764859  0.94262654  0.00930146     0.27100
C520        C  0.46551383  0.92800969  0.02254551    -0.13300
C521        C  0.49413368  0.91218124  0.99667495     0.05200
C522        C  0.48204975  0.89423090  0.96214701    -0.09300
C523        C  0.44159234  0.90787799  0.94951578     0.06100
C524        C  0.41633081  0.93399156  0.97197295    -0.13600
Br525      Br  0.45951965  0.02061168  0.00778487    -0.05700
Br526      Br  0.31006865  0.96495222  0.10963836    -0.00100
Br527      Br  0.54266965  0.93629632  0.00322527     0.00400
Br528      Br  0.36454186  0.95626588  0.95324015    -0.04000
Br529      Br  0.39808191  0.08696353  0.03936825     0.00500
Br530      Br  0.35679320  0.90934350  0.04899660    -0.03300
Br531      Br  0.48060907  0.93472235  0.07513861    -0.04200
Br532      Br  0.41592390  0.88975707  0.90482065    -0.00200
C533        C  0.49952270  0.81939709  0.94834360     0.01200
C534        C  0.52713287  0.78633227  0.93827621     0.04000
C535        C  0.51963070  0.74886889  0.94767966    -0.12000
C536        C  0.48167484  0.74154981  0.95950212     0.23300
C537        C  0.45276435  0.77224371  0.96651761    -0.12600
C538        C  0.46295985  0.80999680  0.96639662     0.04700
C539        C  0.47220961  0.70154978  0.96535669     0.27100
C540        C  0.46383930  0.67884874  0.93396560    -0.13300
C541        C  0.45491986  0.64121598  0.93957737     0.05200
C542        C  0.45160126  0.62660540  0.97687958    -0.09300
C543        C  0.46010809  0.64948776  0.00832118     0.06100
C544        C  0.47113764  0.68633792  0.00248914    -0.13600
Br545      Br  0.39841833  0.76168839  0.97642974    -0.05700
Br546      Br  0.57339855  0.78776322  0.90668097    -0.00100
Br547      Br  0.44674046  0.61030256  0.89576373     0.00400
Br548      Br  0.48550229  0.71607115  0.04543459    -0.04000
Br549      Br  0.42800039  0.84196179  0.99918889     0.00500
Br550      Br  0.56110259  0.70636121  0.94324930    -0.03300
Br551      Br  0.46319709  0.69991294  0.88317734    -0.04200
Br552      Br  0.45880804  0.63001182  0.05973911    -0.00200
C553        C  0.74236556  0.91248368  0.03230599     0.01200
C554        C  0.73192423  0.87683801  0.04373321     0.04000
C555        C  0.69719502  0.86318613  0.02864350    -0.12000
C556        C  0.66947217  0.88734623  0.00646637     0.23300
C557        C  0.67792002  0.92499773  0.99902960    -0.12600
C558        C  0.71491068  0.93676830  0.01043889     0.04700
C559        C  0.63282791  0.87316605  0.98902676     0.27100
C560        C  0.62845112  0.87236789  0.94929070    -0.13300
C561        C  0.59061226  0.86919178  0.93197524     0.05200
C562        C  0.55632151  0.86160837  0.95496033    -0.09300
C563        C  0.56604365  0.85209735  0.99445558     0.06100
C564        C  0.60199130  0.86165219  0.01151923    -0.13600
Br565      Br  0.64003989  0.96022800  0.97129833    -0.05700
Br566      Br  0.76585099  0.84663174  0.07961772    -0.00100
Br567      Br  0.59286689  0.87129113  0.87654071     0.00400
Br568      Br  0.60585854  0.86557063  0.06653081    -0.04000
Br569      Br  0.72882415  0.98597133  0.99524856     0.00500
Br570      Br  0.69069900  0.81009491  0.03455437    -0.03300
Br571      Br  0.67633186  0.87474736  0.91893831    -0.04200
Br572      Br  0.52993344  0.83053800  0.02907520    -0.00200
C573        C  0.50577457  0.87250948  0.89535060     0.01200
C574        C  0.49500947  0.84677722  0.86571049     0.04000
C575        C  0.49721061  0.85644860  0.82663831    -0.12000
C576        C  0.49992894  0.89393253  0.81545098     0.23300
C577        C  0.50380735  0.92134758  0.84329379    -0.12600
C578        C  0.50910100  0.91088641  0.88213932     0.04700
C579        C  0.49346850  0.90552353  0.77465179     0.27100
C580        C  0.52610066  0.90826803  0.75020433    -0.13300
C581        C  0.51943335  0.91934596  0.71169991     0.05200
C582        C  0.47989157  0.92956413  0.69772042    -0.09300
C583        C  0.44731201  0.92598985  0.72242266     0.06100
C584        C  0.45414641  0.91411838  0.76053578    -0.13600
Br585      Br  0.50183385  0.97393784  0.82716113    -0.05700
Br586      Br  0.46500332  0.80376738  0.87289900    -0.00100
Br587      Br  0.56499769  0.92023990  0.67878404     0.00400
Br588      Br  0.40944919  0.90984914  0.79400958    -0.04000
Br589      Br  0.52426927  0.95093198  0.91396442     0.00500
Br590      Br  0.49288726  0.81890159  0.78715732    -0.03300
Br591      Br  0.57997367  0.89757237  0.76999944    -0.04200
Br592      Br  0.39278016  0.93433998  0.70385645    -0.00200
C593        C  0.86279196  0.52025695  0.96888791     0.01200
C594        C  0.85517196  0.51704945  0.00947255     0.04000
C595        C  0.87554600  0.48774354  0.03203632    -0.12000
C596        C  0.90941146  0.46573834  0.01805213     0.23300
C597        C  0.92047878  0.47036407  0.98022464    -0.12600
C598        C  0.89484071  0.49277421  0.95478005     0.04700
C599        C  0.93379854  0.43725566  0.04275830     0.27100
C600        C  0.96710765  0.44751024  0.06239514    -0.13300
C601        C  0.99130502  0.42068810  0.08493254     0.05200
C602        C  0.98397785  0.38097254  0.08720453    -0.09300
C603        C  0.95122757  0.37101035  0.06305319     0.06100
C604        C  0.92532021  0.39956380  0.04391352    -0.13600
Br605      Br  0.97097178  0.44380587  0.96317867    -0.05700
Br606      Br  0.82240666  0.55468754  0.03881798    -0.00100
Br607      Br  0.02920843  0.44349556  0.11678722     0.00400
Br608      Br  0.87679705  0.38781663  0.01834230    -0.04000
Br609      Br  0.90229014  0.47439358  0.90322989     0.00500
Br610      Br  0.85794406  0.47825001  0.08319291    -0.03300
Br611      Br  0.97718245  0.50030580  0.06037721    -0.04200
Br612      Br  0.94080156  0.32038813  0.04792173    -0.00200
C613        C  0.84136059  0.54399148  0.89825347     0.01200
C614        C  0.81253628  0.53009943  0.87213248     0.04000
C615        C  0.82434465  0.51740320  0.83538722    -0.12000
C616        C  0.85894802  0.52849335  0.81882310     0.23300
C617        C  0.88370953  0.54947159  0.84050210    -0.12600
C618        C  0.87719911  0.55462429  0.88005040     0.04700
C619        C  0.86867071  0.51914155  0.77815893     0.27100
C620        C  0.90200164  0.49293322  0.76920592    -0.13300
C621        C  0.91282551  0.48584381  0.73102176     0.05200
C622        C  0.88775989  0.50167113  0.70079786    -0.09300
C623        C  0.85310116  0.52681786  0.71008456     0.06100
C624        C  0.84495748  0.53685461  0.74838471    -0.13600
Br625      Br  0.92814614  0.56966883  0.81562337    -0.05700
Br626      Br  0.75441811  0.53615621  0.87696491    -0.00100
Br627      Br  0.96403358  0.45635132  0.72173768     0.00400
Br628      Br  0.80140565  0.57552022  0.76020541    -0.04000
Br629      Br  0.92225441  0.57133255  0.90726413     0.00500
Br630      Br  0.79213377  0.48517529  0.80675033    -0.03300
Br631      Br  0.93315230  0.46606228  0.80930030    -0.04200
Br632      Br  0.81449331  0.54637122  0.67168016    -0.00200
C633        C  0.59148267  0.50498314  0.00992150     0.01200
C634        C  0.62459314  0.48726412  0.03110891     0.04000
C635        C  0.66384434  0.49529644  0.02264778    -0.12000
C636        C  0.67070292  0.51846302  0.99109433     0.23300
C637        C  0.63792476  0.53565281  0.96968830    -0.12600
C638        C  0.59862863  0.53102689  0.98055493     0.04700
C639        C  0.71209084  0.52634655  0.98102815     0.27100
C640        C  0.72374056  0.56240829  0.98731332    -0.13300
C641        C  0.76091833  0.57225039  0.97378543     0.05200
C642        C  0.79005449  0.54387808  0.95616453    -0.09300
C643        C  0.77786666  0.50586717  0.95424709     0.06100
C644        C  0.73874397  0.49845383  0.96398818    -0.13600
Br645      Br  0.64694514  0.56518883  0.92472639    -0.05700
Br646      Br  0.61736997  0.45039530  0.07027360    -0.00100
Br647      Br  0.76840465  0.62416406  0.98691105     0.00400
Br648      Br  0.71966727  0.45030754  0.95142487    -0.04000
Br649      Br  0.55510970  0.56319092  0.95648104     0.00500
Br650      Br  0.70848168  0.47462534  0.05419516    -0.03300
Br651      Br  0.68747413  0.59795748  0.01657125    -0.04200
Br652      Br  0.81091633  0.46222474  0.93430834    -0.00200
C653        C  0.84465565  0.59318018  0.95023078     0.01200
C654        C  0.82879139  0.62360687  0.92447378     0.04000
C655        C  0.83955824  0.66080083  0.92810714    -0.12000
C656        C  0.85977228  0.67107688  0.96068171     0.23300
C657        C  0.87329835  0.64331703  0.98753648    -0.12600
C658        C  0.87167094  0.60459473  0.97952838     0.04700
C659        C  0.86840854  0.71091474  0.96614174     0.27100
C660        C  0.90757026  0.72051155  0.96073693    -0.13300
C661        C  0.91658290  0.75746559  0.96894115     0.05200
C662        C  0.88594635  0.78559170  0.98060364    -0.09300
C663        C  0.84600507  0.77672755  0.98209889     0.06100
C664        C  0.83764180  0.73914949  0.97682344    -0.13600
Br665      Br  0.89574034  0.65888414  0.03525659    -0.05700
Br666      Br  0.78776285  0.61931493  0.88653219    -0.00100
Br667      Br  0.97048688  0.76989631  0.96192818     0.00400
Br668      Br  0.78424961  0.72609703  0.98577630    -0.04000
Br669      Br  0.91626214  0.57328928  0.00339201     0.00500
Br670      Br  0.82532104  0.69898143  0.88906577    -0.03300
Br671      Br  0.94875084  0.68287333  0.94186416    -0.04200
Br672      Br  0.80212890  0.81557485  0.99083728    -0.00200
C673        C  0.47666395  0.54164483  0.59566762     0.01200
C674        C  0.45589046  0.55679964  0.56144225     0.04000
C675        C  0.44399913  0.53226323  0.53279262    -0.12000
C676        C  0.44460147  0.49334583  0.53969591     0.23300
C677        C  0.45939872  0.47811658  0.57441086    -0.12600
C678        C  0.47671849  0.50093032  0.60136965     0.04700
C679        C  0.42481814  0.46911193  0.51237488     0.27100
C680        C  0.38400452  0.46625883  0.51601594    -0.13300
C681        C  0.36365506  0.44577995  0.48909954     0.05200
C682        C  0.38529580  0.42088575  0.46141220    -0.09300
C683        C  0.42772960  0.42490790  0.45884397     0.06100
C684        C  0.44623133  0.44979829  0.48297360    -0.13600
Br685      Br  0.45711671  0.42454579  0.58391888    -0.05700
Br686      Br  0.43410039  0.60892525  0.55243039    -0.00100
Br687      Br  0.30749055  0.46423026  0.48748052     0.00400
Br688      Br  0.50202384  0.45695670  0.47685468    -0.04000
Br689      Br  0.50339901  0.47214377  0.64322536     0.00500
Br690      Br  0.42591932  0.55160694  0.48302364    -0.06100
Br691      Br  0.35563407  0.49342484  0.55772344    -0.04200
Br692      Br  0.46447208  0.39462759  0.42596372    -0.00200
C693        C  0.74918125  0.48078438  0.58686032     0.01200
C694        C  0.73574090  0.47087615  0.62312315     0.04000
C695        C  0.69681230  0.48485018  0.63502833    -0.12000
C696        C  0.67230705  0.51022127  0.61138247     0.23300
C697        C  0.68636086  0.52079443  0.57558567    -0.12600
C698        C  0.72431470  0.50557539  0.56310289     0.04700
C699        C  0.63000160  0.52279040  0.62098352     0.27100
C700        C  0.60088147  0.50263405  0.60508163    -0.13300
C701        C  0.56261478  0.52120598  0.59823621     0.05200
C702        C  0.54697645  0.55325501  0.62119174    -0.09300
C703        C  0.57752149  0.57353846  0.63851992     0.06100
C704        C  0.61867296  0.55890505  0.63641919    -0.13600
Br705      Br  0.65332472  0.55619246  0.54336641    -0.05700
Br706      Br  0.77137507  0.43978063  0.65685920    -0.00100
Br707      Br  0.54598590  0.51181089  0.54637362     0.00400
Br708      Br  0.66036105  0.58724516  0.65561176    -0.04000
Br709      Br  0.74236208  0.51887977  0.51318991     0.00500
Br710      Br  0.67684136  0.46923442  0.68323858    -0.03300
Br711      Br  0.61557199  0.45203178  0.58521847    -0.04200
Br712      Br  0.56647545  0.61954043  0.66778051    -0.00200
C713        C  0.40423372  0.49501817  0.84374666     0.01200
C714        C  0.39338916  0.53270944  0.83181229     0.04000
C715        C  0.40655704  0.54514550  0.79644777    -0.12000
C716        C  0.42768177  0.51896390  0.77153617     0.23300
C717        C  0.43451913  0.48019931  0.78188291    -0.12600
C718        C  0.42396785  0.46849152  0.81846272     0.04700
C719        C  0.44567747  0.53239050  0.73601948     0.27100
C720        C  0.42203492  0.54209234  0.70387350    -0.13300
C721        C  0.43914793  0.55598953  0.67076108     0.05200
C722        C  0.48228767  0.55427266  0.66616386    -0.09300
C723        C  0.50580441  0.54066515  0.69957631     0.06100
C724        C  0.48690821  0.53440019  0.73457292    -0.13600
Br725      Br  0.46073264  0.44369987  0.74682963    -0.05700
Br726      Br  0.36142042  0.56721649  0.86485796    -0.00100
Br727      Br  0.40022275  0.57967165  0.63478040     0.00400
Br728      Br  0.51744037  0.52775958  0.78189008    -0.04000
Br729      Br  0.43937868  0.41695314  0.83523586     0.00500
Br730      Br  0.39908073  0.59850433  0.78390922    -0.03300
Br731      Br  0.36531107  0.53670479  0.70609853    -0.04200
Br732      Br  0.56209909  0.52175981  0.70163353    -0.00200
C733        C  0.49212185  0.61088549  0.61980307     0.01200
C734        C  0.50912962  0.62997220  0.58822683     0.04000
C735        C  0.49902334  0.66944256  0.58151425    -0.12000
C736        C  0.46973176  0.69049525  0.60345380     0.23300
C737        C  0.45425608  0.67337443  0.63514888    -0.12600
C738        C  0.46977712  0.63637434  0.64636331     0.04700
C739        C  0.45820666  0.73177996  0.59561185     0.27100
C740        C  0.47323411  0.75919700  0.61907678    -0.13300
C741        C  0.46248344  0.79810189  0.61189156     0.05200
C742        C  0.44019649  0.81016620  0.57880709    -0.09300
C743        C  0.42437440  0.78273785  0.55575501     0.06100
C744        C  0.43233350  0.74380133  0.56493800    -0.13600
Br745      Br  0.41286601  0.70199567  0.66486846    -0.05700
Br746      Br  0.54419750  0.60469442  0.55075950    -0.00100
Br747      Br  0.47601027  0.83471109  0.64911987     0.00400
Br748      Br  0.40784406  0.70694603  0.53530485    -0.04000
Br749      Br  0.46971718  0.63044371  0.70150570     0.00500
Br750      Br  0.52418925  0.69532949  0.54104907    -0.03300
Br751      Br  0.50984551  0.74356347  0.66040911    -0.04200
Br752      Br  0.39354377  0.79766065  0.51043652    -0.00200
C753        C  0.88525780  0.89535783  0.59355286     0.01200
C754        C  0.91118522  0.92349336  0.60503280     0.04000
C755        C  0.92058292  0.95160751  0.57904938    -0.12000
C756        C  0.91383587  0.94768573  0.54001540     0.23300
C757        C  0.89171622  0.91932047  0.52701973    -0.12600
C758        C  0.87423303  0.89609893  0.55323241     0.04700
C759        C  0.93463592  0.97052497  0.51258741     0.27100
C760        C  0.91305852  0.99711436  0.48868830    -0.13300
C761        C  0.93320682  0.01850351  0.46264614     0.05200
C762        C  0.97650206  0.01840135  0.46437518    -0.09300
C763        C  0.99770984  0.98882197  0.48838291     0.06100
C764        C  0.97640196  0.96483516  0.51073079    -0.13600
Br765      Br  0.88826600  0.91050941  0.47247938    -0.05700
Br766      Br  0.93559505  0.92927319  0.65437611    -0.00100
Br767      Br  0.89779300  0.05066265  0.42903452     0.00400
Br768      Br  0.00411136  0.92204256  0.53914091    -0.04000
Br769      Br  0.83902167  0.86311492  0.52967413     0.00500
Br770      Br  0.94438137  0.99622091  0.59610445    -0.03300
Br771      Br  0.85544209  0.00706944  0.49515767    -0.04200
Br772      Br  0.05486140  0.97213178  0.48973456    -0.00200
C773        C  0.92755875  0.62974113  0.55201983     0.01200
C774        C  0.95558952  0.64890469  0.57224457     0.04000
C775        C  0.94605173  0.68754328  0.58158498    -0.12000
C776        C  0.90837878  0.70682105  0.57126345     0.23300
C777        C  0.88164137  0.68839207  0.54893730    -0.12600
C778        C  0.89172720  0.65033547  0.53840143     0.04700
C779        C  0.89710027  0.74657137  0.58385820     0.27100
C780        C  0.87814836  0.75405687  0.61882807    -0.13300
C781        C  0.86820243  0.79194481  0.63138790     0.05200
C782        C  0.87840695  0.82399246  0.60909150    -0.09300
C783        C  0.90537597  0.81331737  0.57750516     0.06100
C784        C  0.90884327  0.77640674  0.56243945    -0.13600
Br785      Br  0.83061352  0.71500007  0.53389965    -0.05700
Br786      Br  0.00605258  0.62223338  0.58874947    -0.00100
Br787      Br  0.83901379  0.79616659  0.67866680     0.00400
Br788      Br  0.93229710  0.76573684  0.51272183    -0.04000
Br789      Br  0.85704473  0.62680464  0.50383456     0.00500
Br790      Br  0.98378807  0.71397152  0.60982132    -0.03300
Br791      Br  0.86412095  0.71123181  0.64836761    -0.04200
Br792      Br  0.94909180  0.84054276  0.55984790    -0.00200
C793        C  0.92622301  0.90591813  0.85999399     0.01200
C794        C  0.91507279  0.87030614  0.84897838     0.04000
C795        C  0.90526742  0.86375960  0.81082096    -0.12000
C796        C  0.90882850  0.89194653  0.78311879     0.23300
C797        C  0.92169329  0.92689686  0.79362417    -0.12600
C798        C  0.93029711  0.93396945  0.83206615     0.04700
C799        C  0.89768964  0.88487973  0.74312954     0.27100
C800        C  0.92499105  0.86408277  0.71924068    -0.13300
C801        C  0.91412367  0.85595039  0.68136067     0.05200
C802        C  0.87513786  0.87028007  0.66590745    -0.09300
C803        C  0.84589137  0.88421101  0.69460007     0.06100
C804        C  0.85841152  0.89506565  0.73088898    -0.13600
Br805      Br  0.92465525  0.96594952  0.75565044    -0.05700
Br806      Br  0.91393377  0.83003433  0.88593109    -0.00100
Br807      Br  0.95652201  0.82790886  0.65288771     0.00400
Br808      Br  0.82115298  0.92312176  0.76547491    -0.04000
Br809      Br  0.94463126  0.98314517  0.84638710     0.00500
Br810      Br  0.88421747  0.81720677  0.79673819    -0.03300
Br811      Br  0.97898481  0.84994872  0.73844349    -0.04200
Br812      Br  0.78815605  0.88159644  0.69269136    -0.00200
C813        C  0.62003563  0.96766695  0.56695701     0.01200
C814        C  0.63501568  0.97275490  0.60390851     0.04000
C815        C  0.67410757  0.95695751  0.61371965    -0.12000
C816        C  0.69902673  0.93816335  0.58574348     0.23300
C817        C  0.68530689  0.93681760  0.54776551    -0.12600
C818        C  0.64551796  0.95066138  0.53861147     0.04700
C819        C  0.73947175  0.91941562  0.59610078     0.27100
C820        C  0.77035447  0.94131074  0.60352257    -0.13300
C821        C  0.80716208  0.92405456  0.61762487     0.05200
C822        C  0.81862133  0.88326101  0.61444158    -0.09300
C823        C  0.78634307  0.86153095  0.60320778     0.06100
C824        C  0.74678678  0.87978012  0.59851135    -0.13600
Br825      Br  0.72088154  0.91516949  0.50857707    -0.05700
Br826      Br  0.60199756  0.00190236  0.64053357    -0.00100
Br827      Br  0.83641113  0.95890322  0.64596357     0.00400
Br828      Br  0.70126974  0.85084429  0.59547426    -0.04000
Br829      Br  0.62515624  0.94449372  0.48770929     0.00500
Br830      Br  0.69272703  0.95940686  0.66575465    -0.03300
Br831      Br  0.76149600  0.99575499  0.59501636    -0.04200
Br832      Br  0.79088262  0.80840218  0.58987979    -0.00200
loop_ 
_geom_bond_atom_site_label_1 
_geom_bond_atom_site_label_2 
_geom_bond_distance 
_geom_bond_site_symmetry_2 
_ccdc_geom_bond_type 
C1          C753   1.602       .  S
C1          C782   1.615       .  S
C1          C802   1.606       .  S
C1          C822   1.602       .  S
C2          C673   1.608       .  S
C2          C702   1.604       .  S
C2          C722   1.606       .  S
C2          C733   1.609       .  S
C3          C593   1.612       .  S
C3          C613   1.610       .  S
C3          C642   1.612       .  S
C3          C653   1.606       .  S
C4          C522   1.617       .  S
C4          C533   1.620       .  S
C4          C562   1.616       .  S
C4          C573   1.609       .  S
C5          C453   1.602       .  S
C5          C473   1.608   1_655  S
C5          C502   1.607       .  S
C5          C762   1.602       .  S
C6          C402   1.620       .  S
C6          C422   1.617       .  S
C6          C442   1.621       .  S
C6          C602   1.614   1_455  S
C7          C342   1.613       .  S
C7          C353   1.614       .  S
C7          C382   1.608       .  S
C7          C513   1.616       .  S
C8          C273   1.613       .  S
C8          C293   1.606       .  S
C8          C322   1.606       .  S
C8          C682   1.610       .  S
Zr9          O10   2.440       .  S
Zr9          O11   2.416       .  S
Zr9          O12   2.418       .  S
Zr9          O15   2.417   1_556  S
Zr9          O17   2.377       .  S
Zr9          O18   2.382   1_556  S
Zr9          O19   2.396       .  S
Zr9          O20   2.394   1_556  S
O10          H66   0.990       .  S
O10          H74   0.990       .  S
O11          C31   1.280       .  A
O12          C33   1.282       .  A
O13         Zr23   2.470       .  S
O13          C32   1.291       .  A
O14         Zr22   2.434       .  S
O14          C33   1.284       .  A
O15          C32   1.282       .  A
O16         Zr24   2.440       .  S
O16          C31   1.285   1_554  A
O17         Zr22   2.391       .  S
O17         Zr24   2.372   1_556  S
O18         Zr23   2.392       .  S
O18         Zr24   2.373       .  S
O18          H53   0.966       .  S
O19         Zr22   2.406       .  S
O19         Zr39   2.399   1_566  S
O19          H56   0.966       .  S
O20         Zr23   2.394       .  S
O20         Zr39   2.389   1_565  S
Zr21         O46   2.439   1_655  S
Zr21         O40   2.439   1_565  S
Zr21         O48   2.414       .  S
Zr21         O36   2.426   1_655  S
Zr21         O27   2.405       .  S
Zr21         O28   2.401       .  S
Zr21         O29   2.369   1_565  S
Zr21         O30   2.381   1_565  S
Zr22         O41   2.434       .  S
Zr22         O34   2.436   1_655  S
Zr22         O35   2.437   1_655  S
Zr22         O28   2.397   1_556  S
Zr22         O29   2.395   1_566  S
Zr23         O25   2.434       .  S
Zr23         O47   2.435       .  S
Zr23         O49   2.460       .  S
Zr23         O27   2.397       .  S
Zr23         O30   2.400   1_565  S
Zr24         O50   2.436       .  S
Zr24         O51   2.435       .  S
Zr24         O26   2.435   1_655  S
Zr24         O27   2.396       .  S
Zr24         O28   2.404       .  S
O25          H62   0.990       .  S
O26          H57   0.990       .  S
O26          H71   0.990       .  S
O28          H54   0.966   1_655  S
O29         Zr39   2.379       .  S
O30         Zr39   2.380       .  S
O30          H55   0.966       .  S
C31         C662   1.483       .  S
C32         C553   1.485       .  S
C33         C793   1.474       .  S
O34          H70   0.990       .  S
O35          C37   1.284   1_556  A
O36          C37   1.281       .  A
C37         C373   1.472       .  S
O38         Zr39   2.436   1_556  S
O38          H67   0.990       .  S
Zr39         O42   2.434   1_554  S
Zr39         O43   2.439       .  S
Zr39         O44   2.423       .  S
O40          C45   1.285       .  A
O41          H58   0.990   1_655  S
O41          H73   0.989   1_565  S
O42          H59   0.990       .  S
O43          H63   0.990       .  S
O43          H72   0.989       .  S
O44          C45   1.282       .  A
C45         C433   1.488       .  S
O46          H65   0.990       .  S
O46          H69   0.990       .  S
O47          H61   0.990       .  S
O47          H68   0.990       .  S
O48          C52   1.282       .  A
O49          C52   1.290       .  A
O50          H60   0.990       .  S
O51          H64   0.990   1_655  S
C52         C493   1.486       .  S
Zr75         O76   2.441       .  S
Zr75         O77   2.433       .  S
Zr75         O78   2.406       .  S
Zr75         O81   2.409       .  S
Zr75         O83   2.374       .  S
Zr75         O84   2.371       .  S
Zr75         O85   2.409       .  S
Zr75         O86   2.397       .  S
O76         H132   0.989       .  S
O76         H140   0.990       .  S
O77          C97   1.281       .  A
O78          C99   1.277       .  A
O79         Zr89   2.446       .  S
O79          C98   1.286       .  A
O80         Zr88   2.450       .  S
O80          C99   1.286       .  A
O81          C98   1.281       .  A
O82         Zr90   2.424       .  S
O82          C97   1.280       .  A
O83         Zr88   2.390       .  S
O83         Zr90   2.369       .  S
O84         Zr89   2.401       .  S
O84         Zr90   2.377       .  S
O84         H119   0.965       .  S
O85         Zr88   2.399       .  S
O85        Zr105   2.396       .  S
O85         H122   0.965       .  S
O86         Zr89   2.394       .  S
O86        Zr105   2.395       .  S
Zr87        O112   2.443   1_655  S
Zr87        O106   2.440       .  S
Zr87        O114   2.417   1_655  S
Zr87        O102   2.412       .  S
Zr87         O93   2.398       .  S
Zr87         O94   2.404       .  S
Zr87         O95   2.383       .  S
Zr87         O96   2.377       .  S
Zr88        O107   2.436       .  S
Zr88        O100   2.436       .  S
Zr88        O101   2.436       .  S
Zr88         O94   2.400       .  S
Zr88         O95   2.402       .  S
Zr89         O91   2.435   1_655  S
Zr89        O113   2.439   1_655  S
Zr89        O115   2.451   1_655  S
Zr89         O93   2.394       .  S
Zr89         O96   2.393       .  S
Zr90        O116   2.433   1_655  S
Zr90        O117   2.435   1_655  S
Zr90         O92   2.438       .  S
Zr90         O93   2.401       .  S
Zr90         O94   2.380       .  S
O91         H128   0.990       .  S
O92         H123   0.990       .  S
O92         H137   0.990       .  S
O94         H120   0.964       .  S
O95        Zr105   2.380       .  S
O96        Zr105   2.379       .  S
O96         H121   0.966       .  S
C97         C622   1.499       .  S
C98         C773   1.480       .  S
C99         C693   1.468       .  S
O100        H136   0.990       .  S
O101        C103   1.284       .  A
O102        C103   1.279       .  A
C103        C462   1.461       .  S
O104       Zr105   2.438       .  S
O104        H133   0.990       .  S
Zr105       O108   2.437       .  S
Zr105       O109   2.440       .  S
Zr105       O110   2.425       .  S
O106        C111   1.284       .  A
O107        H124   0.990       .  S
O107        H139   0.990       .  S
O108        H125   0.990       .  S
O109        H129   0.990       .  S
O109        H138   0.990       .  S
O110        C111   1.281       .  A
C111        C393   1.475       .  S
O112        H131   0.990       .  S
O112        H135   0.990       .  S
O113        H127   0.990       .  S
O113        H134   0.989       .  S
O114        C118   1.280       .  A
O115        C118   1.288       .  A
O116        H126   0.990       .  S
O117        H130   0.990       .  S
C118        C282   1.497       .  S
Zr141       O142   2.443       .  S
Zr141       O143   2.450       .  S
Zr141       O144   2.416       .  S
Zr141       O147   2.403       .  S
Zr141       O149   2.376       .  S
Zr141       O150   2.379   1_556  S
Zr141       O151   2.404       .  S
Zr141       O152   2.397   1_556  S
O142        H198   0.990       .  S
O142        H206   0.990       .  S
O143        C163   1.286       .  A
O144        C165   1.280       .  A
O145       Zr155   2.471       .  S
O145        C164   1.291       .  A
O146       Zr154   2.443       .  S
O146        C165   1.285       .  A
O147        C164   1.279   1_556  A
O148       Zr156   2.443       .  S
O148        C163   1.286   1_554  A
O149       Zr154   2.403       .  S
O149       Zr156   2.374   1_556  S
O150       Zr155   2.387       .  S
O150       Zr156   2.375       .  S
O150        H185   0.965       .  S
O151       Zr154   2.407       .  S
O151       Zr171   2.399       .  S
O151        H188   0.966       .  S
O152       Zr155   2.384       .  S
O152       Zr171   2.388   1_554  S
Zr153       O178   2.442       .  S
Zr153       O172   2.440       .  S
Zr153       O180   2.440       .  S
Zr153       O168   2.421       .  S
Zr153       O159   2.406       .  S
Zr153       O160   2.407       .  S
Zr153       O161   2.375       .  S
Zr153       O162   2.384       .  S
Zr154       O173   2.436       .  S
Zr154       O166   2.434       .  S
Zr154       O167   2.465       .  S
Zr154       O160   2.397   1_556  S
Zr154       O161   2.395   1_556  S
Zr155       O157   2.434       .  S
Zr155       O179   2.437       .  S
Zr155       O181   2.434       .  S
Zr155       O159   2.405       .  S
Zr155       O162   2.404       .  S
Zr156       O182   2.433       .  S
Zr156       O183   2.435       .  S
Zr156       O158   2.437       .  S
Zr156       O159   2.400       .  S
Zr156       O160   2.400       .  S
O157        H194   0.990       .  S
O158        H189   0.990       .  S
O158        H203   0.990   1_554  S
O160        H186   0.965       .  S
O161       Zr171   2.384   1_554  S
O162       Zr171   2.386   1_554  S
O162        H187   0.966       .  S
C163        C542   1.498       .  S
C164        C633   1.496       .  S
C165        C713   1.469       .  S
O166        H202   0.990       .  S
O167        C169   1.289   1_556  A
O168        C169   1.281       .  A
C169        C413   1.483       .  S
O170       Zr171   2.437       .  S
O170        H199   0.990       .  S
Zr171       O174   2.435       .  S
Zr171       O175   2.439   1_556  S
Zr171       O176   2.423   1_556  S
O172        C177   1.283       .  A
O173        H190   0.990       .  S
O173        H205   0.990       .  S
O174        H191   0.990       .  S
O175        H195   0.990       .  S
O175        H204   0.989       .  S
O176        C177   1.281       .  A
C177        C333   1.498       .  S
O178        H197   0.990       .  S
O178        H201   0.989       .  S
O179        H193   0.990       .  S
O179        H200   0.990       .  S
O180        C184   1.285       .  A
O181        C184   1.284       .  A
O182        H192   0.990       .  S
O183        H196   0.990       .  S
C184        C302   1.485       .  S
Zr207       O208   2.441       .  S
Zr207       O209   2.440       .  S
Zr207       O210   2.428       .  S
Zr207       O213   2.416       .  S
Zr207       O215   2.376       .  S
Zr207       O216   2.381       .  S
Zr207       O217   2.404       .  S
Zr207       O218   2.400       .  S
O208        H264   0.991       .  S
O208        H272   0.990       .  S
O209        C229   1.284       .  A
O210        C231   1.283       .  A
O211       Zr221   2.454       .  S
O211        C230   1.288       .  A
O212       Zr220   2.434       .  S
O212        C231   1.284   1_545  A
O213        C230   1.283       .  A
O214       Zr222   2.450   1_565  S
O214        C229   1.287       .  A
O215       Zr220   2.399   1_565  S
O215       Zr222   2.373   1_565  S
O216       Zr221   2.392       .  S
O216       Zr222   2.369   1_565  S
O216        H251   0.966       .  S
O217       Zr220   2.402   1_565  S
O217       Zr237   2.400       .  S
O217        H254   0.965       .  S
O218       Zr221   2.396       .  S
O218       Zr237   2.397       .  S
Zr219       O244   2.440       .  S
Zr219       O238   2.440       .  S
Zr219       O246   2.407       .  S
Zr219       O234   2.424       .  S
Zr219       O225   2.409   1_545  S
Zr219       O226   2.410       .  S
Zr219       O227   2.374       .  S
Zr219       O228   2.375   1_545  S
Zr220       O239   2.435       .  S
Zr220       O232   2.434       .  S
Zr220       O233   2.445       .  S
Zr220       O226   2.399       .  S
Zr220       O227   2.402       .  S
Zr221       O223   2.435       .  S
Zr221       O245   2.437       .  S
Zr221       O247   2.450       .  S
Zr221       O225   2.398       .  S
Zr221       O228   2.397       .  S
Zr222       O248   2.435   1_545  S
Zr222       O249   2.436       .  S
Zr222       O224   2.438       .  S
Zr222       O225   2.403   1_545  S
Zr222       O226   2.402       .  S
O223        H260   0.989       .  S
O224        H255   0.990       .  S
O224        H269   0.990       .  S
O226        H252   0.965       .  S
O227       Zr237   2.383   1_545  S
O228       Zr237   2.377       .  S
O228        H253   0.966       .  S
C229        C582   1.499       .  S
C230        C742   1.488       .  S
C231        C813   1.470       .  S
O232        H268   0.990       .  S
O233        C235   1.285       .  A
O234        C235   1.278       .  A
C235        C313   1.474       .  S
O236       Zr237   2.435       .  S
O236        H265   0.990       .  S
Zr237       O240   2.435       .  S
Zr237       O241   2.438       .  S
Zr237       O242   2.429       .  S
O238        C243   1.282       .  A
O239        H256   0.990       .  S
O239        H271   0.990       .  S
O240        H257   0.990       .  S
O241        H261   0.990       .  S
O241        H270   0.990       .  S
O242        C243   1.282   1_565  A
C243        C362   1.482       .  S
O244        H263   0.991       .  S
O244        H267   0.991       .  S
O245        H259   0.990       .  S
O245        H266   0.990       .  S
O246        C250   1.280   1_545  A
O247        C250   1.287       .  A
O248        H258   0.990   1_565  S
O249        H262   0.990       .  S
C250        C482   1.491       .  S
C273        C274   1.458       .  A
C273        C278   1.454       .  A
C274        C275   1.418       .  A
C274       Br286   1.937       .  S
C275        C276   1.398       .  A
C275       Br290   1.940       .  S
C276        C279   1.497       .  S
C276        C277   1.396       .  A
C277        C278   1.416       .  A
C277       Br285   1.941       .  S
C278       Br289   1.927       .  S
C279        C280   1.408       .  A
C279        C284   1.409       .  A
C280        C281   1.405       .  A
C280       Br291   1.922       .  S
C281        C282   1.415       .  A
C281       Br287   1.932       .  S
C282        C283   1.424       .  A
C283        C284   1.414       .  A
C283       Br292   1.933       .  S
C284       Br288   1.932       .  S
C293        C294   1.451       .  A
C293        C298   1.454       .  A
C294        C295   1.405       .  A
C294       Br306   1.943       .  S
C295        C296   1.399       .  A
C295       Br310   1.938       .  S
C296        C299   1.494       .  S
C296        C297   1.400       .  A
C297        C298   1.416       .  A
C297       Br305   1.936       .  S
C298       Br309   1.929       .  S
C299        C300   1.412       .  A
C299        C304   1.412       .  A
C300        C301   1.409       .  A
C300       Br311   1.931       .  S
C301        C302   1.411       .  A
C301       Br307   1.928       .  S
C302        C303   1.412       .  A
C303        C304   1.408       .  A
C303       Br312   1.931       .  S
C304       Br308   1.929       .  S
C313        C314   1.410       .  A
C313        C318   1.408       .  A
C314        C315   1.406       .  A
C314       Br326   1.930       .  S
C315        C316   1.411       .  A
C315       Br330   1.932       .  S
C316        C319   1.490       .  S
C316        C317   1.412       .  A
C317        C318   1.410       .  A
C317       Br325   1.926       .  S
C318       Br329   1.928       .  S
C319        C320   1.398       .  A
C319        C324   1.395       .  A
C320        C321   1.416       .  A
C320       Br331   1.939       .  S
C321        C322   1.453       .  A
C321       Br327   1.933       .  S
C322        C323   1.454       .  A
C323        C324   1.410       .  A
C323       Br332   1.940       .  S
C324       Br328   1.938       .  S
C333        C334   1.420       .  A
C333        C338   1.420       .  A
C334        C335   1.411       .  A
C334       Br346   1.934       .  S
C335        C336   1.409       .  A
C335       Br350   1.931       .  S
C336        C339   1.497       .  S
C336        C337   1.409       .  A
C337        C338   1.409       .  A
C337       Br345   1.930       .  S
C338       Br349   1.932   1_554  S
C339        C340   1.397       .  A
C339        C344   1.398       .  A
C340        C341   1.416       .  A
C340       Br351   1.941       .  S
C341        C342   1.454       .  A
C341       Br347   1.933       .  S
C342        C343   1.461       .  A
C343        C344   1.418       .  A
C343       Br352   1.950       .  S
C344       Br348   1.944       .  S
C353        C354   1.459       .  A
C353        C358   1.456       .  A
C354        C355   1.413       .  A
C354       Br366   1.944   1_545  S
C355        C356   1.395       .  A
C355       Br370   1.941   1_545  S
C356        C359   1.494       .  S
C356        C357   1.397       .  A
C357        C358   1.417       .  A
C357       Br365   1.938       .  S
C358       Br369   1.932       .  S
C359        C360   1.412       .  A
C359        C364   1.411       .  A
C360        C361   1.413       .  A
C360       Br371   1.929       .  S
C361        C362   1.413       .  A
C361       Br367   1.931   1_545  S
C362        C363   1.409       .  A
C363        C364   1.407       .  A
C363       Br372   1.930       .  S
C364       Br368   1.931       .  S
C373        C374   1.408       .  A
C373        C378   1.408   1_565  A
C374        C375   1.408       .  A
C374       Br386   1.928       .  S
C375        C376   1.411   1_565  A
C375       Br390   1.929       .  S
C376        C379   1.487       .  S
C376        C377   1.409       .  A
C377        C378   1.407       .  A
C377       Br385   1.928       .  S
C378       Br389   1.927       .  S
C379        C380   1.397       .  A
C379        C384   1.391       .  A
C380        C381   1.417       .  A
C380       Br391   1.942       .  S
C381        C382   1.460       .  A
C381       Br387   1.943       .  S
C382        C383   1.455       .  A
C383        C384   1.409       .  A
C383       Br392   1.931       .  S
C384       Br388   1.939   1_554  S
C393        C394   1.409       .  A
C393        C398   1.408       .  A
C394        C395   1.408   1_655  A
C394       Br406   1.929   1_655  S
C395        C396   1.408   1_455  A
C395       Br410   1.928       .  S
C396        C399   1.488       .  S
C396        C397   1.411       .  A
C397        C398   1.408       .  A
C397       Br405   1.930       .  S
C398       Br409   1.925       .  S
C399        C400   1.391       .  A
C399        C404   1.394   1_655  A
C400        C401   1.410       .  A
C400       Br411   1.946       .  S
C401        C402   1.466   1_655  A
C401       Br407   1.949       .  S
C402        C403   1.456       .  A
C403        C404   1.418       .  A
C403       Br412   1.931       .  S
C404       Br408   1.940       .  S
C413        C414   1.411       .  A
C413        C418   1.410       .  A
C414        C415   1.410       .  A
C414       Br426   1.930       .  S
C415        C416   1.410       .  A
C415       Br430   1.928       .  S
C416        C419   1.498       .  S
C416        C417   1.413       .  A
C417        C418   1.414       .  A
C417       Br425   1.929       .  S
C418       Br429   1.928       .  S
C419        C420   1.392       .  A
C419        C424   1.399       .  A
C420        C421   1.414       .  A
C420       Br431   1.941   1_554  S
C421        C422   1.456       .  A
C421       Br427   1.929       .  S
C422        C423   1.462       .  A
C423        C424   1.423       .  A
C423       Br432   1.939       .  S
C424       Br428   1.943       .  S
C433        C434   1.415       .  A
C433        C438   1.415       .  A
C434        C435   1.411       .  A
C434       Br446   1.933       .  S
C435        C436   1.412       .  A
C435       Br450   1.930       .  S
C436        C439   1.495       .  S
C436        C437   1.410       .  A
C437        C438   1.407       .  A
C437       Br445   1.934       .  S
C438       Br449   1.931   1_554  S
C439        C440   1.396       .  A
C439        C444   1.396   1_655  A
C440        C441   1.417       .  A
C440       Br451   1.944       .  S
C441        C442   1.455   1_655  A
C441       Br447   1.928       .  S
C442        C443   1.467       .  A
C443        C444   1.420       .  A
C443       Br452   1.952       .  S
C444       Br448   1.949       .  S
C453        C454   1.458       .  A
C453        C458   1.452   1_655  A
C454        C455   1.401       .  A
C454       Br466   1.949       .  S
C455        C456   1.389       .  A
C455       Br470   1.939       .  S
C456        C459   1.476       .  S
C456        C457   1.397       .  A
C457        C458   1.413   1_655  A
C457       Br465   1.938   1_655  S
C458       Br469   1.934       .  S
C459        C460   1.407       .  A
C459        C464   1.409       .  A
C460        C461   1.402       .  A
C460       Br471   1.925       .  S
C461        C462   1.404       .  A
C461       Br467   1.924       .  S
C462        C463   1.409       .  A
C463        C464   1.403       .  A
C463       Br472   1.930       .  S
C464       Br468   1.932       .  S
C473        C474   1.454       .  A
C473        C478   1.460       .  A
C474        C475   1.410       .  A
C474       Br486   1.925       .  S
C475        C476   1.396       .  A
C475       Br490   1.950       .  S
C476        C479   1.490       .  S
C476        C477   1.399       .  A
C477        C478   1.421       .  A
C477       Br485   1.943       .  S
C478       Br489   1.944       .  S
C479        C480   1.407       .  A
C479        C484   1.412   1_545  A
C480        C481   1.401       .  A
C480       Br491   1.935       .  S
C481        C482   1.416   1_545  A
C481       Br487   1.929       .  S
C482        C483   1.417       .  A
C483        C484   1.411       .  A
C483       Br492   1.930       .  S
C484       Br488   1.930       .  S
C493        C494   1.412   1_565  A
C493        C498   1.412       .  A
C494        C495   1.413       .  A
C494       Br506   1.928       .  S
C495        C496   1.414       .  A
C495       Br510   1.930       .  S
C496        C499   1.494       .  S
C496        C497   1.412   1_545  A
C497        C498   1.405       .  A
C497       Br505   1.934   1_655  S
C498       Br509   1.931       .  S
C499        C500   1.401       .  A
C499        C504   1.394   1_545  A
C500        C501   1.415       .  A
C500       Br511   1.937       .  S
C501        C502   1.456       .  A
C501       Br507   1.930       .  S
C502        C503   1.450   1_545  A
C503        C504   1.405       .  A
C503       Br512   1.924   1_655  S
C504       Br508   1.935       .  S
C513        C514   1.457   1_545  A
C513        C518   1.460       .  A
C514        C515   1.416       .  A
C514       Br526   1.937       .  S
C515        C516   1.395       .  A
C515       Br530   1.937       .  S
C516        C519   1.496       .  S
C516        C517   1.399   1_565  A
C517        C518   1.416       .  A
C517       Br525   1.948       .  S
C518       Br529   1.940       .  S
C519        C520   1.393       .  A
C519        C524   1.405   1_554  A
C520        C521   1.398   1_554  A
C520       Br531   1.932       .  S
C521        C522   1.447       .  A
C521       Br527   1.939   1_556  S
C522        C523   1.455       .  A
C523        C524   1.425       .  A
C523       Br532   1.931       .  S
C524       Br528   1.936       .  S
C533        C534   1.455       .  A
C533        C538   1.458       .  A
C534        C535   1.418       .  A
C534       Br546   1.921       .  S
C535        C536   1.396       .  A
C535       Br550   1.939       .  S
C536        C539   1.502       .  S
C536        C537   1.396       .  A
C537        C538   1.419       .  A
C537       Br545   1.939       .  S
C538       Br549   1.926       .  S
C539        C540   1.411       .  A
C539        C544   1.410   1_556  A
C540        C541   1.414       .  A
C540       Br551   1.928       .  S
C541        C542   1.415       .  A
C541       Br547   1.926       .  S
C542        C543   1.418   1_556  A
C543        C544   1.413       .  A
C543       Br552   1.931       .  S
C544       Br548   1.931       .  S
C553        C554   1.407       .  A
C553        C558   1.408       .  A
C554        C555   1.413       .  A
C554       Br566   1.929       .  S
C555        C556   1.417       .  A
C555       Br570   1.930       .  S
C556        C559   1.508   1_554  S
C556        C557   1.420   1_554  A
C557        C558   1.411   1_556  A
C557       Br565   1.932       .  S
C558       Br569   1.931   1_554  S
C559        C560   1.401       .  A
C559        C564   1.403   1_556  A
C560        C561   1.421       .  A
C560       Br571   1.945       .  S
C561        C562   1.460       .  A
C561       Br567   1.948       .  S
C562        C563   1.450       .  A
C563        C564   1.420   1_556  A
C563       Br572   1.939   1_556  S
C564       Br568   1.939       .  S
C573        C574   1.456       .  A
C573        C578   1.452       .  A
C574        C575   1.416       .  A
C574       Br586   1.939       .  S
C575        C576   1.397       .  A
C575       Br590   1.940       .  S
C576        C579   1.495       .  S
C576        C577   1.396       .  A
C577        C578   1.415       .  A
C577       Br585   1.940       .  S
C578       Br589   1.920       .  S
C579        C580   1.409       .  A
C579        C584   1.407       .  A
C580        C581   1.414       .  A
C580       Br591   1.930       .  S
C581        C582   1.420       .  A
C581       Br587   1.927       .  S
C582        C583   1.418       .  A
C583        C584   1.409       .  A
C583       Br592   1.930       .  S
C584       Br588   1.932       .  S
C593        C594   1.454   1_556  A
C593        C598   1.457       .  A
C594        C595   1.413       .  A
C594       Br606   1.934       .  S
C595        C596   1.397       .  A
C595       Br610   1.934       .  S
C596        C599   1.495       .  S
C596        C597   1.395   1_554  A
C597        C598   1.413       .  A
C597       Br605   1.943       .  S
C598       Br609   1.932       .  S
C599        C600   1.394       .  A
C599        C604   1.398       .  A
C600        C601   1.413       .  A
C600       Br611   1.941       .  S
C601        C602   1.459       .  A
C601       Br607   1.935   1_655  S
C602        C603   1.460       .  A
C603        C604   1.420       .  A
C603       Br612   1.942       .  S
C604       Br608   1.942       .  S
C613        C614   1.456       .  A
C613        C618   1.454       .  A
C614        C615   1.411       .  A
C614       Br626   1.949       .  S
C615        C616   1.399       .  A
C615       Br630   1.939       .  S
C616        C619   1.495       .  S
C616        C617   1.400       .  A
C617        C618   1.415       .  A
C617       Br625   1.940       .  S
C618       Br629   1.934       .  S
C619        C620   1.408       .  A
C619        C624   1.410       .  A
C620        C621   1.406       .  A
C620       Br631   1.929       .  S
C621        C622   1.422       .  A
C621       Br627   1.938       .  S
C622        C623   1.423       .  A
C623        C624   1.411       .  A
C623       Br632   1.934       .  S
C624       Br628   1.935       .  S
C633        C634   1.417       .  A
C633        C638   1.421   1_554  A
C634        C635   1.414       .  A
C634       Br646   1.928       .  S
C635        C636   1.412   1_554  A
C635       Br650   1.931       .  S
C636        C639   1.494       .  S
C636        C637   1.407       .  A
C637        C638   1.404       .  A
C637       Br645   1.935       .  S
C638       Br649   1.935       .  S
C639        C640   1.397       .  A
C639        C644   1.395       .  A
C640        C641   1.419       .  A
C640       Br651   1.949   1_556  S
C641        C642   1.462       .  A
C641       Br647   1.942       .  S
C642        C643   1.454       .  A
C643        C644   1.414       .  A
C643       Br652   1.934       .  S
C644       Br648   1.941       .  S
C653        C654   1.455       .  A
C653        C658   1.455       .  A
C654        C655   1.412       .  A
C654       Br666   1.928       .  S
C655        C656   1.395       .  A
C655       Br670   1.940       .  S
C656        C659   1.486       .  S
C656        C657   1.395       .  A
C657        C658   1.409       .  A
C657       Br665   1.938   1_556  S
C658       Br669   1.942   1_556  S
C659        C660   1.410       .  A
C659        C664   1.407       .  A
C660        C661   1.408       .  A
C660       Br671   1.931       .  S
C661        C662   1.412       .  A
C661       Br667   1.930       .  S
C662        C663   1.414       .  A
C663        C664   1.405       .  A
C663       Br672   1.925       .  S
C664       Br668   1.931       .  S
C673        C674   1.454       .  A
C673        C678   1.456       .  A
C674        C675   1.416       .  A
C674       Br686   1.932       .  S
C675        C676   1.398       .  A
C675       Br690   1.941       .  S
C676        C679   1.492       .  S
C676        C677   1.395       .  A
C677        C678   1.411       .  A
C677       Br685   1.937       .  S
C678       Br689   1.939       .  S
C679        C680   1.393       .  A
C679        C684   1.397       .  A
C680        C681   1.412       .  A
C680       Br691   1.948       .  S
C681        C682   1.455       .  A
C681       Br687   1.925       .  S
C682        C683   1.452       .  A
C683        C684   1.416       .  A
C683       Br692   1.931       .  S
C684       Br688   1.934       .  S
C693        C694   1.409       .  A
C693        C698   1.407       .  A
C694        C695   1.411       .  A
C694       Br706   1.928       .  S
C695        C696   1.410       .  A
C695       Br710   1.926       .  S
C696        C699   1.481       .  S
C696        C697   1.409       .  A
C697        C698   1.400       .  A
C697       Br705   1.933       .  S
C698       Br709   1.931       .  S
C699        C700   1.391       .  A
C699        C704   1.404       .  A
C700        C701   1.394       .  A
C700       Br711   1.938       .  S
C701        C702   1.446       .  A
C701       Br707   1.940       .  S
C702        C703   1.450       .  A
C703        C704   1.422       .  A
C703       Br712   1.930       .  S
C704       Br708   1.933       .  S
C713        C714   1.405       .  A
C713        C718   1.407       .  A
C714        C715   1.406       .  A
C714       Br726   1.928       .  S
C715        C716   1.411       .  A
C715       Br730   1.928       .  S
C716        C719   1.489       .  S
C716        C717   1.413       .  A
C717        C718   1.407       .  A
C717       Br725   1.930       .  S
C718       Br729   1.929       .  S
C719        C720   1.393       .  A
C719        C724   1.397       .  A
C720        C721   1.412       .  A
C720       Br731   1.939       .  S
C721        C722   1.454       .  A
C721       Br727   1.930       .  S
C722        C723   1.458       .  A
C723        C724   1.414       .  A
C723       Br732   1.934       .  S
C724       Br728   1.944       .  S
C733        C734   1.450       .  A
C733        C738   1.452       .  A
C734        C735   1.420       .  A
C734       Br746   1.925       .  S
C735        C736   1.401       .  A
C735       Br750   1.938       .  S
C736        C739   1.494       .  S
C736        C737   1.397       .  A
C737        C738   1.408       .  A
C737       Br745   1.937       .  S
C738       Br749   1.945       .  S
C739        C740   1.410       .  A
C739        C744   1.412       .  A
C740        C741   1.406       .  A
C740       Br751   1.932       .  S
C741        C742   1.414       .  A
C741       Br747   1.932       .  S
C742        C743   1.414       .  A
C743        C744   1.411       .  A
C743       Br752   1.930       .  S
C744       Br748   1.925       .  S
C753        C754   1.453       .  A
C753        C758   1.458       .  A
C754        C755   1.412       .  A
C754       Br766   1.931       .  S
C755        C756   1.396       .  A
C755       Br770   1.946       .  S
C756        C759   1.484       .  S
C756        C757   1.393       .  A
C757        C758   1.408       .  A
C757       Br765   1.944       .  S
C758       Br769   1.939       .  S
C759        C760   1.395       .  A
C759        C764   1.397       .  A
C760        C761   1.410   1_565  A
C760       Br771   1.943   1_565  S
C761        C762   1.455       .  A
C761       Br767   1.940       .  S
C762        C763   1.459   1_545  A
C763        C764   1.412       .  A
C763       Br772   1.943   1_655  S
C764       Br768   1.953   1_655  S
C773        C774   1.411       .  A
C773        C778   1.413       .  A
C774        C775   1.410       .  A
C774       Br786   1.928   1_655  S
C775        C776   1.412       .  A
C775       Br790   1.930       .  S
C776        C779   1.486       .  S
C776        C777   1.405       .  A
C777        C778   1.404       .  A
C777       Br785   1.929       .  S
C778       Br789   1.932       .  S
C779        C780   1.398       .  A
C779        C784   1.390       .  A
C780        C781   1.418       .  A
C780       Br791   1.939       .  S
C781        C782   1.451       .  A
C781       Br787   1.930       .  S
C782        C783   1.459       .  A
C783        C784   1.405       .  A
C783       Br792   1.951       .  S
C784       Br788   1.939       .  S
C793        C794   1.411       .  A
C793        C798   1.412       .  A
C794        C795   1.402       .  A
C794       Br806   1.929       .  S
C795        C796   1.407       .  A
C795       Br810   1.933       .  S
C796        C799   1.478       .  S
C796        C797   1.407       .  A
C797        C798   1.406       .  A
C797       Br805   1.929       .  S
C798       Br809   1.928       .  S
C799        C800   1.395       .  A
C799        C804   1.392       .  A
C800        C801   1.414       .  A
C800       Br811   1.941       .  S
C801        C802   1.450       .  A
C801       Br807   1.928       .  S
C802        C803   1.459       .  A
C803        C804   1.406       .  A
C803       Br812   1.953       .  S
C804       Br808   1.942       .  S
C813        C814   1.406       .  A
C813        C818   1.408       .  A
C814        C815   1.407       .  A
C814       Br826   1.927   1_565  S
C815        C816   1.413       .  A
C815       Br830   1.930       .  S
C816        C819   1.485       .  S
C816        C817   1.409       .  A
C817        C818   1.405       .  A
C817       Br825   1.930       .  S
C818       Br829   1.929       .  S
C819        C820   1.389       .  A
C819        C824   1.400       .  A
C820        C821   1.401       .  A
C820       Br831   1.940       .  S
C821        C822   1.458       .  A
C821       Br827   1.937       .  S
C822        C823   1.453       .  A
C823        C824   1.418       .  A
C823       Br832   1.931       .  S
C824       Br828   1.939       .  S
