geometry optimzed in LAMMPS
_audit_creation_date              2020-11-30 
_audit_creation_method            'lammps2cif' 
_symmetry_space_group_name_H-M    'P1' 
_symmetry_Int_Tables_number       1 
_symmetry_cell_setting            triclinic 
loop_ 
_symmetry_equiv_pos_as_xyz 
  x,y,z 
_cell_length_a                    36.165114344367325 
_cell_length_b                    36.07773101910464 
_cell_length_c                    36.1657059476799 
_cell_angle_alpha                 89.97262917504872 
_cell_angle_beta                  90.05510437700701 
_cell_angle_gamma                 90.00288495039057 
loop_ 
_atom_site_label 
_atom_site_type_symbol 
_atom_site_fract_x 
_atom_site_fract_y 
_atom_site_fract_z 
_atom_site_charge 
C1          C  0.99954797  0.26379424  0.73781825     0.03890
C2          C  0.99923312  0.23605850  0.76348169     0.03890
C3          C  0.26258453  0.00038544  0.73692873     0.03890
C4          C  0.23583716  0.00029679  0.76341182     0.03890
C5          C  0.99958094  0.76148942  0.23401820     0.03890
C6          C  0.99893290  0.73584427  0.26176601     0.03890
C7          C  0.76251273  0.99950011  0.23656792     0.03890
C8          C  0.73548712  0.99972401  0.26277966     0.03890
C9          C  0.73646577  0.26291078  0.99991755     0.03890
C10         C  0.76434685  0.23741139  0.00018214     0.03890
C11         C  0.23916673  0.76629994  0.00017560     0.03890
C12         C  0.26618861  0.73987330  0.00036180     0.03890
C13         C  0.73723412  0.73479852  0.00052388     0.03890
C14         C  0.76255594  0.76288415  0.00017633     0.03890
C15         C  0.73543107  0.00015264  0.73790099     0.03890
C16         C  0.76244620  0.99985562  0.76416037     0.03890
C17         C  0.99973945  0.73412746  0.73972995     0.03890
C18         C  0.99971008  0.76064499  0.76669734     0.03890
O19         O  0.20314942  0.83430205  0.88643825    -0.82020
O20         O  0.20112968  0.90366829  0.84537831    -0.79060
C21         C  0.19642561  0.90302018  0.81058671     1.01440
O22         O  0.17164352  0.88224005  0.79664893    -0.79100
O23         O  0.10090288  0.84165052  0.79529610    -0.81740
C24         C  0.09829275  0.80772018  0.80427734     1.05970
O25         O  0.11707014  0.79544196  0.83134735    -0.74500
O26         O  0.15587882  0.79902223  0.90226183    -0.74690
C27         C  0.19010796  0.80704915  0.90452023     1.05920
O28         O  0.15484180  0.86552311  0.93757358    -0.82020
O29         O  0.14618145  0.92685423  0.89730521    -0.79080
C30         C  0.13549419  0.94720946  0.87143222     1.01460
O31         O  0.13627148  0.93654663  0.83847779    -0.79110
O32         O  0.07486371  0.89811287  0.84271244    -0.81710
C33         C  0.05299467  0.87425275  0.85454472     1.05940
O34         O  0.06269978  0.84149388  0.86106128    -0.74530
O35         O  0.09841371  0.84888575  0.92400235    -0.74680
C36         C  0.12182368  0.86016165  0.94660868     1.05900
Cr37       Cr  0.17400296  0.88086265  0.88876049     1.93740
Cr38       Cr  0.12264216  0.88670414  0.82094621     1.93210
Cr39       Cr  0.11144340  0.82368365  0.87801816     1.39100
O40         O  0.13708406  0.86256214  0.86161432    -1.19770
O41         O  0.89821958  0.84145624  0.79523625    -0.82020
O42         O  0.82724622  0.88175377  0.79664581    -0.79060
C43         C  0.80234478  0.90232051  0.81065527     1.01440
O44         O  0.79759993  0.90268475  0.84544214    -0.79100
O45         O  0.79622165  0.83319273  0.88668539    -0.81740
C46         C  0.80962783  0.80596176  0.90459798     1.05970
O47         O  0.84391055  0.79830185  0.90220468    -0.74500
O48         O  0.88238871  0.79511721  0.83124285    -0.74690
C49         C  0.90102951  0.80752113  0.80417237     1.05920
O50         O  0.92407164  0.89802765  0.84274818    -0.82020
O51         O  0.86240994  0.93613009  0.83851610    -0.79080
C52         C  0.86301278  0.94680736  0.87146528     1.01460
O53         O  0.85247694  0.92634340  0.89730658    -0.79110
O54         O  0.84449107  0.86488215  0.93755227    -0.81710
C55         C  0.87756374  0.85973672  0.94655955     1.05940
O56         O  0.90099405  0.84859782  0.92394234    -0.74530
O57         O  0.93655806  0.84143163  0.86092402    -0.74680
C58         C  0.94609303  0.87423965  0.85448962     1.05900
Cr59       Cr  0.87628387  0.88637991  0.82096112     1.93740
Cr60       Cr  0.82503926  0.88005851  0.88879685     1.93210
Cr61       Cr  0.88800477  0.82334464  0.87793201     1.39100
O62         O  0.86204058  0.86206985  0.86159729    -1.19770
O63         O  0.10120488  0.84137792  0.20520626    -0.82020
O64         O  0.17176972  0.88212046  0.20372076    -0.79060
C65         C  0.19643089  0.90300375  0.18976633     1.01440
O66         O  0.20099739  0.90379742  0.15497763    -0.79100
O67         O  0.20330919  0.83460594  0.11381776    -0.81740
C68         C  0.19035709  0.80726197  0.09580884     1.05970
O69         O  0.15621375  0.79893168  0.09826830    -0.74500
O70         O  0.11731848  0.79516923  0.16921510    -0.74690
C71         C  0.09857495  0.80745803  0.19627620     1.05920
O72         O  0.07482271  0.89763605  0.15773514    -0.82020
O73         O  0.13604999  0.93640220  0.16200630    -0.79080
C74         C  0.13515506  0.94716144  0.12907812     1.01460
O75         O  0.14576805  0.92687018  0.10316071    -0.79110
O76         O  0.15473262  0.86565299  0.06283290    -0.81710
C77         C  0.12176908  0.86000362  0.05377437     1.05940
O78         O  0.09848592  0.84843446  0.07633951    -0.74530
O79         O  0.06287719  0.84099542  0.13928669    -0.74680
C80         C  0.05305486  0.87370163  0.14583562     1.05900
Cr81       Cr  0.12269787  0.88645493  0.17948159     1.93740
Cr82       Cr  0.17387327  0.88098631  0.11162062     1.93210
Cr83       Cr  0.11166669  0.82337683  0.12243526     1.39100
O84         O  0.13713851  0.86240911  0.13879796    -1.19770
O85         O  0.79609974  0.83359129  0.11350107    -0.82020
O86         O  0.79783313  0.90294672  0.15480274    -0.79060
C87         C  0.80251566  0.90236022  0.18960807     1.01440
O88         O  0.82737358  0.88169989  0.20359931    -0.79100
O89         O  0.89806945  0.84124330  0.20504812    -0.81740
C90         C  0.90079634  0.80736383  0.19601799     1.05970
O91         O  0.88200920  0.79504207  0.16900505    -0.74500
O92         O  0.84359271  0.79843622  0.09808506    -0.74690
C93         C  0.80937793  0.80631951  0.09562209     1.05920
O94         O  0.84447676  0.86511314  0.06267381    -0.82020
O95         O  0.85281132  0.92642196  0.10299276    -0.79080
C96         C  0.86341100  0.94678652  0.12887773     1.01460
O97         O  0.86272015  0.93605546  0.16181416    -0.79910
O98         O  0.92422559  0.89764577  0.15759002    -0.81710
C99         C  0.94611733  0.87377353  0.14582028     1.05940
O100        O  0.93643926  0.84102187  0.13935788    -0.74530
O101        O  0.90087467  0.84837319  0.07632367    -0.74680
C102        C  0.87750672  0.85973653  0.05369882     1.05900
Cr103      Cr  0.82513098  0.88029105  0.11142886     1.93740
Cr104      Cr  0.87638717  0.88622423  0.17932506     1.93210
Cr105      Cr  0.88779383  0.82320462  0.12233811     1.39100
O106        O  0.86204455  0.86205586  0.13864391    -1.19770
O107        O  0.90096182  0.20119060  0.84460436    -0.82020
O108        O  0.82995260  0.20428376  0.88296824    -0.79060
C109        C  0.80288888  0.19181608  0.90156376     1.01440
O110        O  0.79404432  0.15789322  0.89879857    -0.79100
O111        O  0.79577684  0.11781735  0.82802816    -0.81740
C112        C  0.80979110  0.09711849  0.80327845     1.05970
O113        O  0.84458551  0.09657422  0.79865022    -0.74500
O114        O  0.88567791  0.16600128  0.79707686    -0.74690
C115        C  0.90349741  0.19331396  0.81038639     1.05920
O116        O  0.92288104  0.15125091  0.90190872    -0.82020
O117        O  0.85971738  0.15817767  0.93732611    -0.79080
C118        C  0.85327924  0.12536943  0.94688971     1.01460
O119        O  0.84155928  0.10154617  0.92491514    -0.79110
O120        O  0.83752096  0.06331753  0.86336507    -0.81710
C121        C  0.87046785  0.05263879  0.86416511     1.05940
O122        O  0.89635580  0.07310194  0.85374653    -0.74530
O123        O  0.93657697  0.13458981  0.84553633    -0.74680
C124        C  0.94556456  0.14005210  0.87856173     1.05900
Cr125      Cr  0.87673810  0.17624077  0.88876451     1.93740
Cr126      Cr  0.81990711  0.11308307  0.87707886     1.93210
Cr127      Cr  0.88786598  0.11928005  0.82607888     1.39100
O128        O  0.86057173  0.13737992  0.86293226    -1.19770
O129        O  0.82970747  0.20407189  0.11764049    -0.82020
O130        O  0.90068533  0.20100615  0.15608252    -0.79060
C131        C  0.90323067  0.19294870  0.19025752     1.01440
O132        O  0.88535681  0.16565826  0.20347786    -0.79100
O133        O  0.84470940  0.09611890  0.20185489    -0.81740
C134        C  0.80990054  0.09668424  0.19727982     1.05970
O135        O  0.79581867  0.11739950  0.17253003    -0.74500
O136        O  0.79390178  0.15763494  0.10171912    -0.74690
C137        C  0.80265700  0.19159804  0.09899466     1.05920
O138        O  0.85954562  0.15811487  0.06328504    -0.82020
O139        O  0.92276979  0.15130984  0.09877913    -0.79080
C140        C  0.94551499  0.14018491  0.12215917     1.01460
O141        O  0.93655101  0.13460268  0.15516143    -0.79110
O142        O  0.89656531  0.07302208  0.14680303    -0.81710
C143        C  0.87072737  0.05251281  0.13634769     1.05940
O144        O  0.83773511  0.06307733  0.13717272    -0.74530
O145        O  0.84154301  0.10141728  0.07565092    -0.74680
C146        C  0.85320093  0.12529963  0.05370547     1.05900
Cr147      Cr  0.87654590  0.17613213  0.11187408     1.93740
Cr148      Cr  0.88788028  0.11905780  0.17450781     1.93210
Cr149      Cr  0.81990653  0.11281659  0.12346838     1.39100
O150        O  0.86051809  0.13716710  0.13764457    -1.19770
O151        O  0.20249686  0.11791984  0.82788499    -0.82020
O152        O  0.20432868  0.15799058  0.89868642    -0.79060
C153        C  0.19542191  0.19190027  0.90142509     1.01440
O154        O  0.16835011  0.20430929  0.88278089    -0.79100
O155        O  0.09735998  0.20122479  0.84465025    -0.81740
C156        C  0.09487432  0.19341347  0.81043142     1.05970
O157        O  0.11271951  0.16617156  0.79708162    -0.74500
O158        O  0.15361724  0.09669403  0.79851581    -0.74690
C159        C  0.18843336  0.09729674  0.80306738     1.05920
O160        O  0.16071286  0.06344417  0.86317259    -0.82020
O161        O  0.15687352  0.10159352  0.92481670    -0.79080
C162        C  0.14517934  0.12540942  0.94680027     1.01460
O163        O  0.13878972  0.15822699  0.93725057    -0.79110
O164        O  0.07554577  0.15124002  0.90186773    -0.81710
C165        C  0.05280323  0.14012340  0.87849314     1.05940
O166        O  0.06171716  0.13478327  0.84543734    -0.74530
O167        O  0.10186167  0.07329418  0.85356964    -0.74680
C168        C  0.12774013  0.05282950  0.86401950     1.05900
Cr169      Cr  0.17843549  0.11316273  0.87695363     1.93740
Cr170      Cr  0.12163809  0.17627726  0.88872079     1.93210
Cr171      Cr  0.11039912  0.11943540  0.82596124     1.39100
O172        O  0.13774978  0.13745688  0.86284804    -1.19770
O173        O  0.20429022  0.15803724  0.10150016    -0.82020
O174        O  0.20272877  0.11786666  0.17237353    -0.79060
C175        C  0.18873281  0.09724962  0.19723222     1.01440
O176        O  0.15393465  0.09666990  0.20184670    -0.79100
O177        O  0.11317476  0.16615695  0.20345160    -0.81740
C178        C  0.09518286  0.19339334  0.19024270     1.05970
O179        O  0.09759581  0.20138653  0.15603353    -0.74500
O180        O  0.16853356  0.20446672  0.11750723    -0.74690
C181        C  0.19554424  0.19201289  0.09883910     1.05920
O182        O  0.15658128  0.10171150  0.07562670    -0.82020
O183        O  0.16067744  0.06347502  0.13720533    -0.79080
C184        C  0.12768680  0.05288631  0.13647082     1.01460
O185        O  0.10188272  0.07340705  0.14692706    -0.79110
O186        O  0.06188030  0.13495673  0.15519920    -0.81710
C187        C  0.05282750  0.14042533  0.12218226     1.05940
O188        O  0.07549073  0.15155251  0.09876822    -0.74530
O189        O  0.13859725  0.15839997  0.06318457    -0.74680
C190        C  0.14493177  0.12556925  0.05363309     1.05900
Cr191      Cr  0.17841422  0.11321023  0.12337387     1.93740
Cr192      Cr  0.11062801  0.11950109  0.17453380     1.93210
Cr193      Cr  0.12169827  0.17647140  0.11180066     1.39100
O194        O  0.13784989  0.13756488  0.13760296    -1.19770
C195        C  0.49879911  0.23833324  0.26425368     0.03890
C196        C  0.49831778  0.26280215  0.23539118     0.03890
C197        C  0.23548507  0.26182705  0.50000349     0.03890
C198        C  0.26142832  0.23441246  0.49995254     0.03890
C199        C  0.25975844  0.50007272  0.23588269     0.03890
C200        C  0.23199734  0.49990784  0.26144236     0.03890
C201        C  0.23309853  0.23832335  0.00004519     0.03890
C202        C  0.26006144  0.26476097  0.99956623     0.03890
C203        C  0.23584648  0.00012102  0.23700480     0.03890
C204        C  0.26247391  0.99999614  0.26363459     0.03890
C205        C  0.49936896  0.76631741  0.73810378     0.03890
C206        C  0.49957582  0.73956688  0.76472668     0.03890
C207        C  0.23837102  0.73554133  0.50018715     0.03890
C208        C  0.26540783  0.76192955  0.50040552     0.03890
C209        C  0.49924295  0.73755000  0.23706041     0.03890
C210        C  0.49906452  0.76487378  0.26308229     0.03890
O211        O  0.29561858  0.88217101  0.32808618    -0.82020
O212        O  0.29418733  0.84204342  0.39891658    -0.79060
C213        C  0.30318984  0.80816038  0.40172220     1.01440
O214        O  0.33024653  0.79579747  0.38307425    -0.79100
O215        O  0.40099909  0.79912831  0.34446193    -0.81740
C216        C  0.40335041  0.80702096  0.31023478     1.05970
O217        O  0.38543084  0.83429608  0.29696515    -0.74500
O218        O  0.34431779  0.90361966  0.29865589    -0.74690
C219        C  0.30953392  0.90286913  0.30325737     1.05920
O220        O  0.33736703  0.93678663  0.36332289    -0.82020
O221        O  0.34155849  0.89852898  0.42490849    -0.79080
C222        C  0.35344967  0.87475131  0.44686778     1.01460
O223        O  0.36006616  0.84199311  0.43729632    -0.79110
O224        O  0.42308913  0.84911654  0.40159956    -0.81710
C225        C  0.44566462  0.86023172  0.37809392     1.05940
O226        O  0.43649144  0.86572805  0.34513182    -0.74530
O227        O  0.39619966  0.92709103  0.35366682    -0.74680
C228        C  0.37032575  0.94744397  0.36431166     1.05900
Cr229      Cr  0.31986165  0.88695557  0.37709884     1.93740
Cr230      Cr  0.37694437  0.82399382  0.38868811     1.93210
Cr231      Cr  0.38769220  0.88098500  0.32593396     1.39100
O232        O  0.36056391  0.86279067  0.36287521    -1.19770
O233        O  0.29565939  0.16589927  0.38589588    -0.82020
O234        O  0.29824756  0.09631726  0.34553671    -0.79060
C235        C  0.30290061  0.09674759  0.31073962     1.01440
O236        O  0.32775810  0.11728260  0.29661741    -0.79100
O237        O  0.39816868  0.15816258  0.29498126    -0.81740
C238        C  0.40037765  0.19227179  0.30324740     1.05970
O239        O  0.38132206  0.20487753  0.32993587    -0.74500
O240        O  0.34248555  0.20212006  0.40087866    -0.74690
C241        C  0.30848567  0.19345784  0.40363952     1.05920
O242        O  0.34422277  0.13562958  0.43741795    -0.82020
O243        O  0.35323905  0.07384930  0.39794043    -0.79080
C244        C  0.36379212  0.05319756  0.37228609     1.01460
O245        O  0.36330648  0.06368938  0.33926918    -0.79110
O246        O  0.42445119  0.10284749  0.34361527    -0.81710
C247        C  0.44604418  0.12722564  0.35496398     1.05940
O248        O  0.43597834  0.15998164  0.36079377    -0.74530
O249        O  0.40029312  0.15346732  0.42381185    -0.74680
C250        C  0.37710839  0.14181436  0.44645189     1.05900
Cr251      Cr  0.32517565  0.11964981  0.38877920     1.93740
Cr252      Cr  0.37667764  0.11343768  0.32127710     1.93210
Cr253      Cr  0.38708579  0.17755450  0.37721756     1.39100
O254        O  0.36192127  0.13803030  0.36149253    -1.19770
O255        O  0.65409446  0.90236005  0.29780606    -0.82020
O256        O  0.61371759  0.83259217  0.29697913    -0.79060
C257        C  0.59551338  0.80563663  0.31040188     1.01440
O258        O  0.59793380  0.79795110  0.34466489    -0.79100
O259        O  0.66895403  0.79570567  0.38347969    -0.81740
C260        C  0.69585220  0.80860476  0.40209382     1.05970
O261        O  0.70409259  0.84271033  0.39940029    -0.74500
O262        O  0.70283016  0.88234500  0.32828685    -0.74690
C263        C  0.68883014  0.90244706  0.30298218     1.05920
O264        O  0.60152369  0.92625531  0.35169663    -0.82020
O265        O  0.56200194  0.86430862  0.34448530    -0.79080
C266        C  0.55295506  0.85927002  0.37756753     1.01460
O267        O  0.57555990  0.84830553  0.40116044    -0.79110
O268        O  0.63855086  0.84198196  0.43718628    -0.81710
C269        C  0.64438847  0.87493929  0.44659374     1.05940
O270        O  0.65561305  0.89885874  0.42444715    -0.74530
O271        O  0.66009243  0.93664729  0.36246289    -0.74680
C272        C  0.62707407  0.94714838  0.36208790     1.05900
Cr273      Cr  0.61074719  0.87967368  0.32511452     1.93740
Cr274      Cr  0.62189174  0.82347394  0.38864269     1.93210
Cr275      Cr  0.67802024  0.88717066  0.37697790     1.39100
O276        O  0.63783587  0.86229916  0.36254997    -1.19770
O277        O  0.65724601  0.20123037  0.40179564    -0.82020
O278        O  0.61682803  0.20639142  0.33136781    -0.79060
C279        C  0.59814626  0.19434933  0.30406478     1.01440
O280        O  0.60131270  0.16069454  0.29441778    -0.79100
O281        O  0.67151502  0.11875750  0.29520143    -0.81740
C282        C  0.69595757  0.09743291  0.30901631     1.05970
O283        O  0.70059299  0.09639935  0.34377956    -0.74500
O284        O  0.70390006  0.16490251  0.38631221    -0.74690
C285        C  0.69123207  0.19230865  0.40446268     1.05920
O286        O  0.59950075  0.15202684  0.42406338    -0.82020
O287        O  0.56311294  0.16041762  0.36156562    -0.79080
C288        C  0.55301046  0.12801326  0.35413709     1.01460
O289        O  0.57436876  0.10431833  0.34109965    -0.79110
O290        O  0.63495742  0.06470932  0.33605479    -0.81710
C291        C  0.63422370  0.05333134  0.36875211     1.05940
O292        O  0.64515892  0.07306186  0.39501604    -0.74530
O293        O  0.65547727  0.13337208  0.43669467    -0.74680
C294        C  0.62285536  0.13979154  0.44626797     1.05900
Cr295      Cr  0.61218802  0.17742077  0.37791549     1.93740
Cr296      Cr  0.62236518  0.11511859  0.31953496     1.93210
Cr297      Cr  0.67385832  0.11880702  0.38747470     1.39100
O298        O  0.63722839  0.13838440  0.36066807    -1.19770
O299        O  0.66860633  0.79604453  0.61753143    -0.82020
O300        O  0.59764076  0.79918940  0.65598491    -0.79060
C301        C  0.59518393  0.80727391  0.69015690     1.01440
O302        O  0.61310883  0.83455145  0.70331188    -0.79100
O303        O  0.65361403  0.90402079  0.70166540    -0.81740
C304        C  0.68842518  0.90340118  0.69728356     1.05970
O305        O  0.70257308  0.88282140  0.67249475    -0.74500
O306        O  0.70445207  0.84251696  0.60177126    -0.74690
C307        C  0.69571835  0.80856028  0.59903094     1.05920
O308        O  0.63873315  0.84200511  0.56309832    -0.82020
O309        O  0.57553070  0.84888864  0.59854799    -0.79080
C310        C  0.55280963  0.86001027  0.62190169     1.01460
O311        O  0.56181049  0.86554313  0.65490846    -0.79110
O312        O  0.60179713  0.92710610  0.64650465    -0.81710
C313        C  0.62766014  0.94762200  0.63617051     1.05940
O314        O  0.66063899  0.93702318  0.63695978    -0.74530
O315        O  0.65682975  0.89867902  0.57541440    -0.74680
C316        C  0.64506503  0.87482318  0.55348007     1.05900
Cr317      Cr  0.62176357  0.82402390  0.61172172     1.93740
Cr318      Cr  0.61049142  0.88109797  0.67426736     1.93210
Cr319      Cr  0.67845520  0.88732103  0.62334752     1.39100
O320        O  0.63784017  0.86298104  0.63747159    -1.19770
O321        O  0.67074954  0.11836590  0.70493452    -0.82020
O322        O  0.59985593  0.15889652  0.70508965    -0.79060
C323        C  0.59720726  0.19282298  0.69604622     1.01440
O324        O  0.61600004  0.20510623  0.66900116    -0.79100
O325        O  0.65586246  0.20129040  0.59867618    -0.81740
C326        C  0.69011121  0.19332107  0.59681092     1.05970
O327        O  0.70310938  0.16637699  0.61539688    -0.74500
O328        O  0.70098394  0.09712556  0.65664590    -0.74690
C329        C  0.69579178  0.09768201  0.69135026     1.05920
O330        O  0.63604120  0.06394804  0.66270090    -0.82020
O331        O  0.57457551  0.10213546  0.65752254    -0.79080
C332        C  0.55276628  0.12587069  0.64531251     1.01460
O333        O  0.56245440  0.15859132  0.63866727    -0.79110
O334        O  0.59911236  0.15098070  0.57618058    -0.81710
C335        C  0.62292675  0.13984727  0.55393377     1.05940
O336        O  0.65581074  0.13461725  0.56356935    -0.74530
O337        O  0.64685390  0.07351949  0.60402688    -0.74680
C338        C  0.63571403  0.05325274  0.62974977     1.05900
Cr339      Cr  0.62205452  0.11378716  0.67989908     1.93740
Cr340      Cr  0.61129292  0.17650528  0.62235180     1.93210
Cr341      Cr  0.67431729  0.11964335  0.61281301     1.39100
O342        O  0.63693444  0.13785237  0.63934743    -1.19770
O343        O  0.29797708  0.09661466  0.65482980    -0.82020
O344        O  0.29605379  0.16596711  0.61391427    -0.79060
C345        C  0.30914485  0.19324202  0.59592216     1.01440
O346        O  0.34330658  0.20140565  0.59838975    -0.79100
O347        O  0.38177184  0.20482007  0.66932995    -0.81740
C348        C  0.40054108  0.19254825  0.69638901     1.05970
O349        O  0.39802431  0.15859377  0.70528013    -0.74500
O350        O  0.32724110  0.11811140  0.70366988    -0.74690
C351        C  0.30247556  0.09736935  0.68964836     1.05920
O352        O  0.35311772  0.07354180  0.60301339    -0.82020
O353        O  0.34447313  0.13493945  0.56279371    -0.79080
C354        C  0.37742285  0.14073142  0.55376414     1.01460
O355        O  0.40081050  0.15182290  0.57649495    -0.79110
O356        O  0.43632048  0.15888589  0.63963642    -0.81710
C357        C  0.44596604  0.12606674  0.64592214     1.05940
O358        O  0.42411684  0.10221107  0.65780812    -0.74530
O359        O  0.36269464  0.06377938  0.66188454    -0.74680
C360        C  0.36362455  0.05314178  0.62892156     1.05900
Cr361      Cr  0.32521587  0.11947016  0.61154089     1.93740
Cr362      Cr  0.38764357  0.17674390  0.62261463     1.93210
Cr363      Cr  0.37631325  0.11360134  0.67950923     1.39100
O364        O  0.36201420  0.13777751  0.63881887    -1.19770
O365        O  0.34474354  0.90395134  0.70183889    -0.82020
O366        O  0.38531145  0.83438949  0.70356088    -0.79060
C367        C  0.40324474  0.80712593  0.69040627     1.01440
O368        O  0.40076679  0.79908843  0.65622378    -0.79100
O369        O  0.32972901  0.79606567  0.61791899    -0.81740
C370        C  0.30272007  0.80849520  0.59918269     1.05970
O371        O  0.29396667  0.84246833  0.60176482    -0.74500
O372        O  0.29583258  0.88273430  0.67250552    -0.74690
C373        C  0.30992692  0.90337711  0.69728956     1.05920
O374        O  0.39668455  0.92696488  0.64679400    -0.82020
O375        O  0.43659352  0.86538801  0.65516662    -0.79080
C376        C  0.44551469  0.85990255  0.62213281     1.01460
O377        O  0.42274863  0.84877669  0.59878668    -0.79110
O378        O  0.35951823  0.84192794  0.56335234    -0.81710
C379        C  0.35325769  0.87475626  0.55371752     1.05940
O380        O  0.34166182  0.89867179  0.57563664    -0.74530
O381        O  0.33787267  0.93700768  0.63713658    -0.74680
C382        C  0.37089068  0.94750618  0.63630424     1.05900
Cr383      Cr  0.38792337  0.88097578  0.67453768     1.93740
Cr384      Cr  0.37656414  0.82394034  0.61197952     1.93210
Cr385      Cr  0.31997954  0.88729396  0.62346000     1.39100
O386        O  0.36055920  0.86291255  0.63768779    -1.19770
C387        C  0.73532365  0.76330338  0.50065726     0.03890
C388        C  0.76356382  0.73818848  0.50088846     0.03890
C389        C  0.26205459  0.50094903  0.76396816     0.03890
C390        C  0.23664195  0.50030264  0.73603189     0.03890
C391        C  0.49884819  0.24027824  0.73379187     0.03890
C392        C  0.49854514  0.26719136  0.76038333     0.03890
O393        O  0.61674877  0.70437545  0.17247259    -0.82020
O394        O  0.65719914  0.70556068  0.10172570    -0.79060
C395        C  0.69103353  0.69656032  0.09912036     1.01440
O396        O  0.70328343  0.66939957  0.11784980    -0.79100
O397        O  0.69963128  0.59825327  0.15692097    -0.81740
C398        C  0.69135983  0.59550101  0.19107436     1.05970
O399        O  0.66423631  0.61375299  0.20415167    -0.74500
O400        O  0.59524342  0.65556387  0.20192693    -0.74690
C401        C  0.59606506  0.69043445  0.19729685     1.05920
O402        O  0.56235923  0.66263690  0.13701281    -0.82020
O403        O  0.60077048  0.65814830  0.07565862    -0.79080
C404        C  0.62441208  0.64600276  0.05378758     1.01460
O405        O  0.65713467  0.63946624  0.06347307    -0.79110
O406        O  0.64994511  0.57646161  0.09950063    -0.81710
C407        C  0.63904929  0.55387121  0.12311397     1.05940
O408        O  0.63285689  0.56318032  0.15585538    -0.74530
O409        O  0.57186263  0.60366713  0.14670974    -0.74680
C410        C  0.55171401  0.62961864  0.13572784     1.05900
Cr411      Cr  0.61221912  0.67998724  0.12345985     1.93740
Cr412      Cr  0.67499524  0.62262171  0.11237966     1.93210
Cr413      Cr  0.61773888  0.61200612  0.17482852     1.39100
O414        O  0.63621726  0.63916438  0.13797698    -1.19770
O415        O  0.59697239  0.65780139  0.79687681    -0.82020
O416        O  0.66621120  0.61533424  0.79585683    -0.79060
C417        C  0.69216209  0.59572963  0.80953278     1.01440
O418        O  0.69815528  0.59588749  0.84418979    -0.79100
O419        O  0.70328292  0.66503541  0.88573799    -0.81740
C420        C  0.69119906  0.69301718  0.90342584     1.05970
O421        O  0.65765100  0.70291648  0.89993664    -0.74500
O422        O  0.61754052  0.70502950  0.82916383    -0.74690
C423        C  0.59713069  0.69230233  0.80346958     1.05920
O424        O  0.57142956  0.60429119  0.84884729    -0.82020
O425        O  0.63183044  0.56335282  0.84031429    -0.79080
C426        C  0.63241872  0.55297659  0.87327158     1.01460
O427        O  0.64435812  0.57360317  0.89833908    -0.79110
O428        O  0.65497108  0.63524916  0.93712556    -0.81710
C429        C  0.62274617  0.64347202  0.94670582     1.05940
O430        O  0.59963331  0.65637033  0.92463548    -0.74530
O431        O  0.56256125  0.66265061  0.86249442    -0.74680
C432        C  0.55163554  0.62972740  0.86145537     1.05900
Cr433      Cr  0.61838302  0.61315249  0.82299041     1.93740
Cr434      Cr  0.67281523  0.61917645  0.88837972     1.93210
Cr435      Cr  0.61226582  0.67899479  0.87730074     1.39100
O436        O  0.63580404  0.63828316  0.86186580    -1.19770
O437        O  0.29430026  0.61864818  0.17153360    -0.82020
O438        O  0.29617311  0.65907725  0.10067250    -0.79060
C439        C  0.30627308  0.69264905  0.09734633     1.01440
O440        O  0.33433405  0.70447674  0.11493772    -0.79100
O441        O  0.40351505  0.69924977  0.15567795    -0.81740
C442        C  0.40396563  0.69335769  0.19035653     1.05970
O443        O  0.38448835  0.66738003  0.20423248    -0.74500
O444        O  0.34165442  0.59799901  0.20351313    -0.74690
C445        C  0.30717235  0.59808540  0.19711268     1.05920
O446        O  0.33611422  0.56370246  0.13790564    -0.82020
O447        O  0.34211949  0.60054511  0.07567412    -0.79080
C448        C  0.35548290  0.62331030  0.05349859     1.01460
O449        O  0.36338795  0.65581793  0.06282657    -0.79110
O450        O  0.42521668  0.64541295  0.10142236    -0.81710
C451        C  0.44609063  0.63398539  0.12650475     1.05940
O452        O  0.43568292  0.63263116  0.15941621    -0.74530
O453        O  0.39450998  0.57230707  0.15109454    -0.74680
C454        C  0.36890846  0.55264960  0.13862617     1.05900
Cr455      Cr  0.31992186  0.61345401  0.12315560     1.93740
Cr456      Cr  0.37982557  0.67383633  0.11165018     1.93210
Cr457      Cr  0.38609740  0.61935863  0.17705525     1.39100
O458        O  0.36081184  0.63685804  0.13832509    -1.19770
O459        O  0.29849640  0.65658129  0.90159907    -0.82020
O460        O  0.29526362  0.61798416  0.83041538    -0.79060
C461        C  0.30766524  0.59953306  0.80321647     1.01440
O462        O  0.34154784  0.60221906  0.79450714    -0.79100
O463        O  0.38211688  0.67323385  0.79644404    -0.81740
C464        C  0.40271302  0.69801970  0.81075502     1.05970
O465        O  0.40323698  0.70228825  0.84560048    -0.74500
O466        O  0.33399260  0.70399882  0.88650633    -0.74690
C467        C  0.30673422  0.69082579  0.90440626     1.05920
O468        O  0.34795530  0.59880861  0.92344719    -0.82020
O469        O  0.34128956  0.56319852  0.86023530    -0.79080
C470        C  0.37417444  0.55371287  0.85424309     1.01460
O471        O  0.39771745  0.57573983  0.84204805    -0.79110
O472        O  0.43590796  0.63741033  0.83820353    -0.81710
C473        C  0.44659358  0.63632554  0.87112390     1.05940
O474        O  0.42627419  0.64662660  0.89711994    -0.74530
O475        O  0.36492936  0.65519433  0.93726749    -0.74680
C476        C  0.35878938  0.62223578  0.94627568     1.05900
Cr477      Cr  0.32325455  0.61210121  0.87723398     1.93740
Cr478      Cr  0.38632946  0.62382789  0.82047633     1.93210
Cr479      Cr  0.38040369  0.67468026  0.88867659     1.39100
O480        O  0.36212757  0.63794876  0.86117838    -1.19770
O481        O  0.59948084  0.29707104  0.84136615    -0.82020
O482        O  0.67045971  0.29530677  0.88172422    -0.79060
C483        C  0.69612548  0.30832384  0.90202980     1.01440
O484        O  0.70252154  0.34284914  0.90192682    -0.79100
O485        O  0.70290828  0.38518374  0.83259097    -0.81740
C486        C  0.68896741  0.40471118  0.80671947     1.05970
O487        O  0.65427416  0.40456043  0.80106860    -0.74500
O488        O  0.61333147  0.33537880  0.79596749    -0.74690
C489        C  0.59575691  0.30727767  0.80790045     1.05920
O490        O  0.57461838  0.34318680  0.89967304    -0.82020
O491        O  0.63683409  0.33746898  0.93655866    -0.79080
C492        C  0.63794457  0.37039255  0.94749030     1.01460
O493        O  0.65040210  0.39589610  0.92765458    -0.79110
O494        O  0.65842805  0.43695304  0.86720174    -0.81710
C495        C  0.62544137  0.44722306  0.86682526     1.05940
O496        O  0.60033582  0.42645159  0.85520372    -0.74530
O497        O  0.56181118  0.36458537  0.84452158    -0.74680
C498        C  0.55239523  0.35607199  0.87671712     1.05900
Cr499      Cr  0.62209011  0.32101636  0.88687696     1.93740
Cr500      Cr  0.67603861  0.38724326  0.88057538     1.93210
Cr501      Cr  0.61039439  0.38101971  0.82657073     1.39100
O502        O  0.63719151  0.36191663  0.86337848    -1.19770
O503        O  0.70412433  0.39822023  0.15848225    -0.82020
O504        O  0.70268189  0.32736072  0.11766837    -0.79060
C505        C  0.68863526  0.30261419  0.09685316     1.01440
O506        O  0.65380374  0.29806313  0.09623591    -0.79100
O507        O  0.61211768  0.29629186  0.16532357    -0.81740
C508        C  0.59415353  0.30961354  0.19248114     1.05970
O509        O  0.59684599  0.34386411  0.20051111    -0.74500
O510        O  0.66784529  0.38193676  0.20428111    -0.74690
C511        C  0.69506631  0.40059651  0.19230181     1.05920
O512        O  0.65698112  0.42474453  0.10189500    -0.82020
O513        O  0.66126898  0.36320658  0.06362940    -0.79080
C514        C  0.62842336  0.36399380  0.05268857     1.01460
O515        O  0.60232869  0.35353715  0.07281228    -0.79110
O516        O  0.56168954  0.34506784  0.13384639    -0.81710
C517        C  0.55260098  0.37801802  0.13995416     1.05940
O518        O  0.57535600  0.40149646  0.15088056    -0.74530
O519        O  0.63857723  0.43708936  0.15825808    -0.74680
C520        C  0.64467795  0.44668138  0.12543961     1.05900
Cr521      Cr  0.67858048  0.37669354  0.11337486     1.93740
Cr522      Cr  0.61043304  0.32557716  0.11878727     1.93210
Cr523      Cr  0.62135634  0.38818113  0.17597181     1.39100
O524        O  0.63771576  0.36239706  0.13722237    -1.19770
O525        O  0.32594376  0.29629074  0.88197801    -0.82020
O526        O  0.39695748  0.29449912  0.84154219    -0.79060
C527        C  0.39989132  0.30385400  0.80780651     1.01440
O528        O  0.38138203  0.33118479  0.79571271    -0.79100
O529        O  0.34317302  0.40224734  0.79931479    -0.81740
C530        C  0.30895278  0.40497408  0.80716047     1.05970
O531        O  0.29551874  0.38704438  0.83433924    -0.74500
O532        O  0.29705039  0.34541955  0.90343917    -0.74690
C533        C  0.30123087  0.31050974  0.90261841     1.05920
O534        O  0.36177177  0.33761536  0.93641213    -0.82020
O535        O  0.42329789  0.34132863  0.89832330    -0.79080
C536        C  0.44539324  0.35350906  0.87490875     1.01460
O537        O  0.43595940  0.36041709  0.84219549    -0.79110
O538        O  0.40041197  0.42376347  0.84937451    -0.81710
C539        C  0.37680593  0.44651356  0.85994722     1.05940
O540        O  0.34397104  0.43734400  0.86585033    -0.74530
O541        O  0.35271380  0.39671832  0.92693652    -0.74680
C542        C  0.36347704  0.37062323  0.94704643     1.05900
Cr543      Cr  0.37528147  0.32013450  0.88659898     1.93740
Cr544      Cr  0.38731424  0.37770935  0.82414273     1.93210
Cr545      Cr  0.32463495  0.38865695  0.88097739     1.39100
O546        O  0.36133863  0.36122036  0.86268341    -1.19770
O547        O  0.38382762  0.29605826  0.16500165    -0.82020
O548        O  0.34298514  0.30096959  0.09551209    -0.79060
C549        C  0.30835235  0.30722470  0.09484436     1.01440
O550        O  0.29466104  0.33332919  0.11418960    -0.79100
O551        O  0.29540982  0.40269009  0.15619904    -0.81740
C552        C  0.30135603  0.40256031  0.19073109     1.05970
O553        O  0.32693113  0.38222690  0.20397144    -0.74500
O554        O  0.39782656  0.34181934  0.20281503    -0.74690
C555        C  0.40128088  0.30817063  0.19306040     1.05920
O556        O  0.43593575  0.34446996  0.13563474    -0.82020
O557        O  0.39766343  0.35441577  0.07359609    -0.79080
C558        C  0.37276724  0.36591487  0.05254877     1.01460
O559        O  0.33981482  0.36743392  0.06276076    -0.79110
O560        O  0.34818264  0.42805237  0.10355087    -0.81710
C561        C  0.36028817  0.44787941  0.12919022     1.05940
O562        O  0.36085584  0.43690591  0.16202080    -0.74530
O563        O  0.42313654  0.39991252  0.15651505    -0.74680
C564        C  0.44530479  0.37701849  0.14335043     1.05900
Cr565      Cr  0.38713901  0.32638175  0.11919272     1.93740
Cr566      Cr  0.32203287  0.38111319  0.11214665     1.93210
Cr567      Cr  0.37549345  0.38724289  0.17858496     1.39100
O568        O  0.36052432  0.36361068  0.13778095    -1.19770
C569        C  0.73512692  0.50009079  0.76261566     0.03890
C570        C  0.76172611  0.49988561  0.73592842     0.03890
C571        C  0.99878948  0.26131366  0.26423212     0.03890
C572        C  0.99911124  0.23437226  0.23782824     0.03890
C573        C  0.73919620  0.23299530  0.50080746     0.03890
C574        C  0.76574629  0.25987988  0.50110678     0.03890
C575        C  0.75781603  0.49933681  0.26766752     0.03890
C576        C  0.73177472  0.49899824  0.24023081     0.03890
O577        O  0.15683679  0.70350651  0.40253760    -0.82020
O578        O  0.11360225  0.70471881  0.33350493    -0.79060
C579        C  0.09439387  0.69083266  0.30733983     1.01440
O580        O  0.09530329  0.65618940  0.30105612    -0.79100
O581        O  0.16438720  0.61539865  0.29606024    -0.81740
C582        C  0.19228621  0.59753844  0.30787124     1.05970
O583        O  0.20248049  0.60090929  0.34130885    -0.74500
O584        O  0.20416518  0.67173407  0.38162618    -0.74690
C585        C  0.19131690  0.69718723  0.40228320     1.05920
O586        O  0.10420091  0.65066518  0.42815614    -0.82020
O587        O  0.06268931  0.65957805  0.36803184    -0.79080
C588        C  0.05197069  0.62676004  0.36546956     1.01460
O589        O  0.07289484  0.60167328  0.35404345    -0.79110
O590        O  0.13495957  0.56306594  0.34421116    -0.81710
C591        C  0.14330792  0.55351177  0.37647058     1.05940
O592        O  0.15661009  0.57557974  0.39935648    -0.74530
O593        O  0.16263522  0.63759758  0.43666500    -0.74680
C594        C  0.12988225  0.63832039  0.44782321     1.05900
Cr595      Cr  0.11234266  0.67707083  0.38126821     1.93740
Cr596      Cr  0.11871744  0.61200295  0.32632284     1.93210
Cr597      Cr  0.17865455  0.62323023  0.38678370     1.39100
O598        O  0.13763283  0.63844174  0.36351783    -1.19770
O599        O  0.83801131  0.60126065  0.29533332    -0.82020
O600        O  0.88015933  0.67159027  0.29451194    -0.79060
C601        C  0.90114753  0.69656275  0.30793466     1.01440
O602        O  0.90179937  0.70205491  0.34257843    -0.79100
O603        O  0.83347383  0.70544540  0.38590334    -0.81740
C604        C  0.80637410  0.69251997  0.40436546     1.05970
O605        O  0.79782444  0.65840887  0.40194226    -0.74500
O606        O  0.79260302  0.61769178  0.33209956    -0.74690
C607        C  0.80438088  0.59857916  0.30502681     1.05920
O608        O  0.89455871  0.57500117  0.34238025    -0.82020
O609        O  0.93413364  0.63570863  0.33592733    -0.79080
C610        C  0.94556098  0.63569034  0.36861119     1.01460
O611        O  0.92596894  0.64751089  0.39457768    -0.79110
O612        O  0.86589743  0.65786576  0.43624648    -0.81710
C613        C  0.85960343  0.62532630  0.44637368     1.05940
O614        O  0.84745699  0.60143618  0.42464820    -0.74530
O615        O  0.83851902  0.56404022  0.36265064    -0.74680
C616        C  0.87076979  0.55370293  0.35534916     1.05900
Cr617      Cr  0.88371690  0.62277160  0.31987157     1.93740
Cr618      Cr  0.87991694  0.67574421  0.38682254     1.93210
Cr619      Cr  0.82174633  0.61338929  0.37848685     1.39100
O620        O  0.86053466  0.63843336  0.36072928    -1.19770
O621        O  0.82857465  0.70467064  0.61813261    -0.82020
O622        O  0.89942831  0.70422749  0.65780072    -0.79060
C623        C  0.90161954  0.69630288  0.69201694     1.01440
O624        O  0.88261152  0.66968122  0.70497886    -0.79100
O625        O  0.84325602  0.59887407  0.70322985    -0.81740
C626        C  0.80883521  0.59725506  0.69618800     1.05970
O627        O  0.79536989  0.61645516  0.66995190    -0.74500
O628        O  0.79595945  0.65670067  0.59966067    -0.74690
C629        C  0.80263170  0.69126421  0.59855091     1.05920
O630        O  0.86126332  0.65998611  0.56396009    -0.82020
O631        O  0.92334571  0.65458152  0.60178487    -0.79080
C632        C  0.94551261  0.64388683  0.62589571     1.01460
O633        O  0.93596043  0.63854968  0.65880857    -0.79110
O634        O  0.89865045  0.57603947  0.65216362    -0.81710
C635        C  0.87434379  0.55388405  0.64178264     1.05940
O636        O  0.84128791  0.56353676  0.63760091    -0.74530
O637        O  0.84739926  0.60213900  0.57580308    -0.74680
C638        C  0.85765269  0.62683189  0.55398130     1.05900
Cr639      Cr  0.87644663  0.67832811  0.61335310     1.93740
Cr640      Cr  0.88717734  0.62247426  0.67732089     1.93210
Cr641      Cr  0.82248065  0.61266073  0.62246227     1.39100
O642        O  0.86103687  0.63882977  0.63876231    -1.19770
O643        O  0.10065169  0.70544609  0.65849951    -0.82020
O644        O  0.17141985  0.70412098  0.61756253    -0.79060
C645        C  0.19637837  0.68987393  0.59719641     1.01440
O646        O  0.20108175  0.65500159  0.59709760    -0.79100
O647        O  0.20266555  0.61416668  0.66651201    -0.81740
C648        C  0.18946336  0.59613689  0.69367062     1.05970
O649        O  0.15527044  0.59848976  0.70156437    -0.74500
O650        O  0.11678876  0.66947923  0.70474190    -0.74690
C651        C  0.09808372  0.69659252  0.69239643     1.05920
O652        O  0.07443495  0.65753965  0.60239380    -0.82020
O653        O  0.13592471  0.66186957  0.56404708    -0.79080
C654        C  0.13583977  0.62888294  0.55329013     1.01460
O655        O  0.14633302  0.60295834  0.57373478    -0.79110
O656        O  0.15451416  0.56275415  0.63524130    -0.81710
C657        C  0.12151260  0.55364364  0.64063655     1.05940
O658        O  0.09807916  0.57631031  0.65181814    -0.74530
O659        O  0.06231163  0.63950781  0.65896161    -0.74680
C660        C  0.05257953  0.64568451  0.62623131     1.05900
Cr661      Cr  0.12230909  0.67955514  0.61361557     1.93740
Cr662      Cr  0.17377054  0.61165700  0.61989189     1.93210
Cr663      Cr  0.11105491  0.62261498  0.67674519     1.39100
O664        O  0.13677375  0.63890655  0.63789763    -1.19770
O665        O  0.88135339  0.32765872  0.29631715    -0.82020
O666        O  0.83905560  0.39786966  0.29522958    -0.79060
C667        C  0.80529506  0.40023275  0.30450395     1.01440
O668        O  0.79343264  0.38091871  0.33138596    -0.79100
O669        O  0.79793302  0.34145075  0.40201829    -0.81740
C670        C  0.80711362  0.30750752  0.40495015     1.05970
O671        O  0.83474270  0.29495477  0.38713363    -0.74500
O672        O  0.90337373  0.29872614  0.34521281    -0.74690
C673        C  0.90233086  0.30304304  0.31039725     1.05920
O674        O  0.93473969  0.36453865  0.33783106    -0.82020
O675        O  0.89470557  0.42508248  0.34266704    -0.79080
C676        C  0.87058494  0.44635679  0.35503670     1.01460
O677        O  0.83819035  0.43593624  0.36175903    -0.79110
O678        O  0.84605567  0.39989120  0.42451821    -0.81710
C679        C  0.85816703  0.37662384  0.44690399     1.05940
O680        O  0.86520309  0.34400511  0.43752060    -0.74530
O681        O  0.92585378  0.35464685  0.39672336    -0.74680
C682        C  0.94573107  0.36571910  0.37065817     1.05900
Cr683      Cr  0.88449656  0.37695061  0.32077966     1.93740
Cr684      Cr  0.82152010  0.38661262  0.37818082     1.93210
Cr685      Cr  0.88049917  0.32545008  0.38868178     1.39100
O686        O  0.86095327  0.36188475  0.36160042    -1.19770
O687        O  0.16437501  0.38440774  0.29624250    -0.82020
O688        O  0.09490257  0.34370535  0.30044468    -0.79060
C689        C  0.09429544  0.30900516  0.30665301     1.01440
O690        O  0.11358884  0.29527798  0.33276929    -0.79100
O691        O  0.15521749  0.29594404  0.40228073    -0.81740
C692        C  0.18970707  0.30216912  0.40241627     1.05970
O693        O  0.20286639  0.32786381  0.38222273    -0.74500
O694        O  0.20166600  0.39899941  0.34214427    -0.74690
C695        C  0.19209854  0.40230164  0.30847060     1.05920
O696        O  0.13468011  0.43668737  0.34418045    -0.82020
O697        O  0.07256918  0.39838239  0.35356916    -0.79080
C698        C  0.05151967  0.37344305  0.36503822     1.01460
O699        O  0.06172014  0.34037486  0.36654782    -0.79110
O700        O  0.10210367  0.34840434  0.42748389    -0.81710
C701        C  0.12751618  0.36045423  0.44764867     1.05940
O702        O  0.16041033  0.36152288  0.43686883    -0.74530
O703        O  0.15484118  0.42381673  0.39980143    -0.74680
C704        C  0.14240090  0.44610867  0.37663450     1.05900
Cr705      Cr  0.11835212  0.38785281  0.32601392     1.93740
Cr706      Cr  0.11110638  0.32251249  0.38052642     1.93210
Cr707      Cr  0.17722982  0.37632095  0.38729862     1.39100
O708        O  0.13667283  0.36122118  0.36336910    -1.19770
O709        O  0.79563237  0.34343901  0.60016434    -0.82020
O710        O  0.79535321  0.38274134  0.67114317    -0.79060
C711        C  0.80882492  0.40197589  0.69732250     1.01440
O712        O  0.84326932  0.40042350  0.70419805    -0.79100
O713        O  0.88285975  0.32960280  0.70431958    -0.81740
C714        C  0.90205597  0.30344405  0.69072288     1.05970
O715        O  0.90032618  0.29665310  0.65625306    -0.74500
O716        O  0.82945005  0.29585757  0.61749967    -0.74690
C717        C  0.80300827  0.30899385  0.59846118     1.05920
O718        O  0.84581196  0.39947576  0.57661838    -0.82020
O719        O  0.84054998  0.43676166  0.63904559    -0.79080
C720        C  0.87369294  0.44640995  0.64288131     1.01460
O721        O  0.89809535  0.42430248  0.65315915    -0.79110
O722        O  0.93589185  0.36199427  0.65854565    -0.81710
C723        C  0.94541043  0.35770667  0.62546678     1.05940
O724        O  0.92310508  0.34801247  0.60105864    -0.74530
O725        O  0.86062620  0.34215024  0.56364643    -0.74680
C726        C  0.85617151  0.37538024  0.55425869     1.05900
Cr727      Cr  0.82179911  0.38767101  0.62340061     1.93740
Cr728      Cr  0.88707948  0.37743364  0.67759531     1.93210
Cr729      Cr  0.87669851  0.32312289  0.61252034     1.39100
O730        O  0.86086850  0.36173781  0.63884188    -1.19770
O731        O  0.11673003  0.33048166  0.70508172    -0.82020
O732        O  0.15564212  0.40155994  0.70101404    -0.79060
C733        C  0.18976891  0.40433361  0.69279954     1.01440
O734        O  0.20289077  0.38654097  0.66539151    -0.79100
O735        O  0.20057115  0.34421900  0.59651242    -0.81740
C736        C  0.19597429  0.30931686  0.59716669     1.05970
O737        O  0.17132875  0.29529264  0.61805377    -0.74500
O738        O  0.10090118  0.29402171  0.65914434    -0.74690
C739        C  0.09818906  0.30315740  0.69289944     1.05920
O740        O  0.06228895  0.36028381  0.65922804    -0.82020
O741        O  0.09800572  0.42340417  0.65154545    -0.79080
C742        C  0.12127158  0.44600946  0.63989775     1.01460
O743        O  0.15411261  0.43682797  0.63383055    -0.79110
O744        O  0.14508168  0.39568528  0.57304445    -0.81710
C745        C  0.13444693  0.36946380  0.55306734     1.05940
O746        O  0.13528192  0.33661236  0.56414771    -0.74530
O747        O  0.07409692  0.34129579  0.60290478    -0.74680
C748        C  0.05244859  0.35384002  0.62658020     1.05900
Cr749      Cr  0.11115250  0.37721574  0.67665865     1.93740
Cr750      Cr  0.17329333  0.38782562  0.61898495     1.93210
Cr751      Cr  0.12213384  0.31957494  0.61404368     1.39100
O752        O  0.13664143  0.36057645  0.63779317    -1.19770
C753        C  0.98280196  0.36056469  0.61666921    -0.09940
C754        C  0.01539943  0.35893194  0.61720482    -0.11500
C755        C  0.12361903  0.37561559  0.51640660    -0.09940
C756        C  0.12030086  0.37125640  0.48411512    -0.11500
C757        C  0.86117538  0.38587483  0.48432609    -0.09940
C758        C  0.86050060  0.38500895  0.51703343    -0.11500
C759        C  0.01464324  0.38119103  0.37420993    -0.09940
C760        C  0.98218456  0.37742736  0.37712369    -0.11500
C761        C  0.11156490  0.48343946  0.63629469    -0.09940
C762        C  0.11169354  0.51628715  0.63658810    -0.11500
C763        C  0.01541824  0.64138668  0.61702915    -0.09940
C764        C  0.98279951  0.64061438  0.61688531    -0.11500
C765        C  0.88282747  0.48370826  0.63808597    -0.09940
C766        C  0.88323899  0.51646439  0.63765496    -0.11500
C767        C  0.86336902  0.61689167  0.48394584    -0.09940
C768        C  0.86270211  0.61790945  0.51666115    -0.11500
C769        C  0.87908095  0.48369804  0.35913570    -0.09940
C770        C  0.87928443  0.51635247  0.35927789    -0.11500
C771        C  0.12308373  0.62680085  0.48415294    -0.09940
C772        C  0.12603864  0.62228002  0.51645237    -0.11500
C773        C  0.98209364  0.62404717  0.37507938    -0.09940
C774        C  0.01458271  0.61967509  0.37314013    -0.11500
C775        C  0.13987663  0.51621074  0.38603315    -0.09940
C776        C  0.13950852  0.48347232  0.38608764    -0.11500
C777        C  0.78461527  0.43282145  0.29100549    -0.09940
C778        C  0.77271874  0.46345660  0.28175478    -0.11500
C779        C  0.77201413  0.53548416  0.28174697    -0.09940
C780        C  0.78366791  0.56611598  0.29129261    -0.11500
C781        C  0.78043427  0.27439336  0.46566916    -0.09940
C782        C  0.79124624  0.28654439  0.43588539    -0.11500
C783        C  0.77867600  0.27541430  0.53686810    -0.09940
C784        C  0.78801077  0.28815555  0.56694003    -0.11500
C785        C  0.03418943  0.27591996  0.27887197    -0.09940
C786        C  0.06388887  0.28800682  0.28994478    -0.11500
C787        C  0.96300176  0.27587799  0.27799142    -0.09940
C788        C  0.93297224  0.28670189  0.28947376    -0.11500
C789        C  0.78842685  0.43369317  0.71253387    -0.09940
C790        C  0.77650841  0.46401060  0.72230921    -0.11500
C791        C  0.77637092  0.53554365  0.72169587    -0.09940
C792        C  0.78833757  0.56572228  0.71159402    -0.11500
C793        C  0.37583601  0.37738583  0.98320967    -0.09940
C794        C  0.38031633  0.37488331  0.01560367    -0.11500
C795        C  0.70928117  0.43258406  0.21309946    -0.09940
C796        C  0.71858432  0.46299386  0.22523831    -0.11500
C797        C  0.51515717  0.38752077  0.13758631    -0.09940
C798        C  0.48245041  0.38702514  0.13901077    -0.11500
C799        C  0.70983105  0.43487924  0.78951887    -0.09940
C800        C  0.72136101  0.46459681  0.77786547    -0.11500
C801        C  0.51506015  0.35840077  0.88584008    -0.09940
C802        C  0.48245266  0.35748386  0.88475241    -0.11500
C803        C  0.62212088  0.37450909  0.01601742    -0.09940
C804        C  0.62667662  0.37758915  0.98376539    -0.11500
C805        C  0.38581550  0.48406778  0.86184886    -0.09940
C806        C  0.38422639  0.51671819  0.85963895    -0.11500
C807        C  0.36111243  0.61265410  0.98369125    -0.09940
C808        C  0.35977034  0.61321235  0.01639075    -0.11500
C809        C  0.37572252  0.51641716  0.12696507    -0.09940
C810        C  0.37156236  0.48424854  0.12243217    -0.11500
C811        C  0.70903918  0.56549831  0.78841763    -0.09940
C812        C  0.72035434  0.53576460  0.77654383    -0.11500
C813        C  0.48319040  0.62563983  0.87761236    -0.09940
C814        C  0.51542659  0.62247833  0.87296326    -0.11500
C815        C  0.62156853  0.51638941  0.88081093    -0.09940
C816        C  0.61794882  0.48387253  0.87744561    -0.11500
C817        C  0.71781803  0.53451683  0.22468180    -0.09940
C818        C  0.70735920  0.56431221  0.21189723    -0.11500
C819        C  0.61377320  0.64084959  0.98406897    -0.09940
C820        C  0.61482421  0.64174094  0.01668370    -0.11500
C821        C  0.63929509  0.48368738  0.11552737    -0.09940
C822        C  0.63708574  0.51633140  0.11417128    -0.11500
C823        C  0.51549643  0.62268278  0.12361769    -0.09940
C824        C  0.48308158  0.62501748  0.11919809    -0.11500
C825        C  0.46260946  0.28060086  0.77529218    -0.09940
C826        C  0.43217220  0.28982310  0.78733376    -0.11500
C827        C  0.53410784  0.28171132  0.77511274    -0.09940
C828        C  0.56415852  0.29210873  0.78718042    -0.11500
C829        C  0.28845403  0.43585076  0.79045592    -0.09940
C830        C  0.27643309  0.46558592  0.77916515    -0.11500
C831        C  0.27577049  0.53709251  0.77826356    -0.09940
C832        C  0.28723407  0.56754113  0.78836205    -0.11500
C833        C  0.21064618  0.43486127  0.70976910    -0.09940
C834        C  0.22280835  0.46447671  0.72127638    -0.11500
C835        C  0.22224141  0.53564320  0.72105981    -0.09940
C836        C  0.21016046  0.56539618  0.71008669    -0.11500
C837        C  0.77915090  0.72469181  0.46537308    -0.09940
C838        C  0.79040519  0.71326302  0.43544064    -0.11500
C839        C  0.78753721  0.71192794  0.56696223    -0.09940
C840        C  0.77769192  0.72383197  0.53670161    -0.11500
C841        C  0.43273953  0.21311476  0.71055220    -0.09940
C842        C  0.46314455  0.22511573  0.72000271    -0.11500
C843        C  0.37446730  0.01655004  0.62210376    -0.09940
C844        C  0.37789929  0.98410154  0.62556983    -0.11500
C845        C  0.71115192  0.20908806  0.56596736    -0.09940
C846        C  0.72384497  0.21923578  0.53621636    -0.11500
C847        C  0.56512978  0.21351736  0.71040400    -0.09940
C848        C  0.53478056  0.22554732  0.72005146    -0.11500
C849        C  0.51562399  0.11668358  0.64159763    -0.09940
C850        C  0.48304706  0.11678980  0.64188204    -0.11500
C851        C  0.71025259  0.78833662  0.56684254    -0.09940
C852        C  0.72032641  0.77709776  0.53638053    -0.11500
C853        C  0.62084145  0.98433772  0.62579694    -0.09940
C854        C  0.62465670  0.01677333  0.62272017    -0.11500
C855        C  0.51551949  0.86372916  0.61204619    -0.09940
C856        C  0.48275557  0.86369909  0.61218184    -0.11500
C857        C  0.72473513  0.21873210  0.46513665    -0.09940
C858        C  0.71231221  0.20815669  0.43536092    -0.11500
C859        C  0.61353194  0.13580723  0.48369226    -0.09940
C860        C  0.61366514  0.13580382  0.51648306    -0.11500
C861        C  0.71068354  0.78849527  0.43428021    -0.09940
C862        C  0.72077311  0.77721056  0.46475424    -0.11500
C863        C  0.64085964  0.88422528  0.48374722    -0.09940
C864        C  0.64116018  0.88410618  0.51634201    -0.11500
C865        C  0.61985090  0.98409141  0.37152240    -0.09940
C866        C  0.62323468  0.01659197  0.37480589    -0.11500
C867        C  0.38706705  0.13795274  0.48368626    -0.09940
C868        C  0.38716651  0.13748569  0.51643786    -0.11500
C869        C  0.51588724  0.11904039  0.35830371    -0.09940
C870        C  0.48332226  0.11869173  0.35864881    -0.11500
C871        C  0.35701960  0.88398624  0.48400537    -0.09940
C872        C  0.35694615  0.88396353  0.51658178    -0.11500
C873        C  0.48300292  0.86384905  0.38768942    -0.09940
C874        C  0.51575006  0.86349690  0.38738936    -0.11500
C875        C  0.37719558  0.98396734  0.37553070    -0.09940
C876        C  0.37405783  0.01643240  0.37933201    -0.11500
C877        C  0.43388155  0.79036060  0.28949300    -0.09940
C878        C  0.46352907  0.77934096  0.27735038    -0.11500
C879        C  0.43420265  0.71055680  0.21128584    -0.09940
C880        C  0.46381162  0.72226098  0.22307658    -0.11500
C881        C  0.53453337  0.77918903  0.27778130    -0.09940
C882        C  0.56442300  0.78959962  0.28993312    -0.11500
C883        C  0.53501555  0.72312704  0.22320339    -0.09940
C884        C  0.56516428  0.71138415  0.21306198    -0.11500
C885        C  0.27965392  0.77646309  0.46468372    -0.09940
C886        C  0.28917389  0.78793537  0.43413455    -0.11500
C887        C  0.28859329  0.78817961  0.56684783    -0.09940
C888        C  0.27919792  0.77654663  0.53630374    -0.11500
C889        C  0.21245040  0.71174958  0.43383925    -0.09940
C890        C  0.22404469  0.72149523  0.46427861    -0.11500
C891        C  0.21254162  0.71033782  0.56600573    -0.09940
C892        C  0.22336956  0.72159176  0.53582378    -0.11500
C893        C  0.46394660  0.72488113  0.77888342    -0.09940
C894        C  0.43378738  0.71422541  0.79026794    -0.11500
C895        C  0.46380933  0.78033740  0.72340418    -0.09940
C896        C  0.43403476  0.79088085  0.71112170    -0.11500
C897        C  0.53543299  0.72526629  0.77883963    -0.09940
C898        C  0.56577129  0.71357747  0.78873854    -0.11500
C899        C  0.53473250  0.78051197  0.72322784    -0.09940
C900        C  0.56443882  0.79105898  0.71087102    -0.11500
C901        C  0.27665005  0.03561464  0.27824812    -0.09940
C902        C  0.28694648  0.06574193  0.29004367    -0.11500
C903        C  0.28870126  0.93395832  0.28761439    -0.09940
C904        C  0.27697120  0.96421869  0.27759632    -0.11500
C905        C  0.27496729  0.27943047  0.03484797    -0.09940
C906        C  0.28730618  0.29051257  0.06444893    -0.11500
C907        C  0.27443576  0.27847873  0.96367333    -0.09940
C908        C  0.28501962  0.28979581  0.93349023    -0.11500
C909        C  0.27505952  0.46424702  0.22254988    -0.09940
C910        C  0.28583391  0.43388058  0.21155419    -0.11500
C911        C  0.21764377  0.46409312  0.27585015    -0.09940
C912        C  0.20732569  0.43392608  0.28780447    -0.11500
C913        C  0.28605504  0.56649162  0.21193268    -0.09940
C914        C  0.27433451  0.53606160  0.22190363    -0.11500
C915        C  0.21729796  0.53561339  0.27549272    -0.09940
C916        C  0.20707084  0.56585789  0.28716569    -0.11500
C917        C  0.28780467  0.20941635  0.43457317    -0.09940
C918        C  0.27577033  0.21998678  0.46442201    -0.11500
C919        C  0.22167773  0.27662605  0.46423584    -0.09940
C920        C  0.21048897  0.28697793  0.43386328    -0.11500
C921        C  0.27605426  0.22003514  0.53539678    -0.09940
C922        C  0.28836545  0.20941689  0.56513531    -0.11500
C923        C  0.21156722  0.28843853  0.56597060    -0.09940
C924        C  0.22161796  0.27656444  0.53576672    -0.11500
C925        C  0.46247889  0.27591996  0.22005055    -0.09940
C926        C  0.43248690  0.28739446  0.20888614    -0.11500
C927        C  0.46310981  0.22415280  0.27908168    -0.09940
C928        C  0.43262554  0.21266828  0.28892373    -0.11500
C929        C  0.56333262  0.28898361  0.20895564    -0.09940
C930        C  0.53364702  0.27696922  0.22014995    -0.11500
C931        C  0.53494472  0.22540428  0.27949530    -0.09940
C932        C  0.56560614  0.21460029  0.28982262    -0.11500
C933        C  0.06445407  0.20971308  0.21098086    -0.09940
C934        C  0.03472289  0.22032355  0.22329395    -0.11500
C935        C  0.20949835  0.06612401  0.21296194    -0.09940
C936        C  0.22128754  0.03589090  0.22303747    -0.11500
C937        C  0.21932330  0.22396049  0.03604797    -0.09940
C938        C  0.20980759  0.21236167  0.06657068    -0.11500
C939        C  0.21887784  0.22354926  0.96442112    -0.09940
C940        C  0.20942728  0.21205845  0.93386354    -0.11500
C941        C  0.14149238  0.11614967  0.98392401    -0.09940
C942        C  0.14135588  0.11628957  0.01650149    -0.11500
C943        C  0.93402003  0.20925597  0.21088019    -0.09940
C944        C  0.96376197  0.21996269  0.22306668    -0.11500
C945        C  0.01555047  0.13659687  0.11233696    -0.09940
C946        C  0.98278865  0.13651702  0.11231454    -0.11500
C947        C  0.98281845  0.13619042  0.88846600    -0.09940
C948        C  0.01557747  0.13621178  0.88842284    -0.11500
C949        C  0.85685163  0.11608083  0.01658866    -0.09940
C950        C  0.85687973  0.11610308  0.98401772    -0.11500
C951        C  0.87763309  0.01588727  0.12562210    -0.09940
C952        C  0.87414526  0.98344267  0.12209436    -0.11500
C953        C  0.21191503  0.93417251  0.21058079    -0.09940
C954        C  0.22184223  0.96444143  0.22234545    -0.11500
C955        C  0.98328551  0.88287627  0.14217396    -0.09940
C956        C  0.01586758  0.88274967  0.14215274    -0.11500
C957        C  0.12424584  0.98378273  0.12234081    -0.09940
C958        C  0.12074374  0.01623084  0.12583959    -0.11500
C959        C  0.87366306  0.98348974  0.87831020    -0.09940
C960        C  0.87724094  0.01594294  0.87483056    -0.11500
C961        C  0.88744790  0.86383976  0.98376692    -0.09940
C962        C  0.88741073  0.86383954  0.01651104    -0.11500
C963        C  0.98324014  0.88351006  0.85812234    -0.09940
C964        C  0.01582919  0.88343384  0.85816353    -0.11500
C965        C  0.12090446  0.01619954  0.87476322    -0.09940
C966        C  0.12454416  0.98377317  0.87826348    -0.11500
C967        C  0.11196653  0.86416100  0.98381768    -0.09940
C968        C  0.11188473  0.86408115  0.01656154    -0.11500
C969        C  0.03553356  0.77540615  0.78065806    -0.09940
C970        C  0.06600553  0.78722650  0.79015795    -0.11500
C971        C  0.96386350  0.77539814  0.78055555    -0.09940
C972        C  0.93337974  0.78717851  0.79002070    -0.11500
C973        C  0.03554801  0.72039531  0.72482882    -0.09940
C974        C  0.06593580  0.71089779  0.71287984    -0.11500
C975        C  0.96396949  0.72047104  0.72461976    -0.09940
C976        C  0.93364027  0.71095483  0.71249467    -0.11500
C977        C  0.77732001  0.03548941  0.77807456    -0.09940
C978        C  0.78911425  0.06579395  0.78788175    -0.11500
C979        C  0.77657792  0.96396437  0.77840971    -0.09940
C980        C  0.78669068  0.93363402  0.79000779    -0.11500
C981        C  0.71114109  0.06642018  0.71226897    -0.09940
C982        C  0.72121475  0.03605781  0.72379615    -0.11500
C983        C  0.70909288  0.93440575  0.71330162    -0.09940
C984        C  0.72077933  0.96456606  0.72365245    -0.11500
C985        C  0.77661026  0.77813489  0.03552048    -0.09940
C986        C  0.78864839  0.78952036  0.06510295    -0.11500
C987        C  0.78887192  0.78892647  0.93502245    -0.09940
C988        C  0.77665762  0.77756081  0.96456443    -0.11500
C989        C  0.72311201  0.72065307  0.03650656    -0.09940
C990        C  0.71150337  0.71091236  0.06696300    -0.11500
C991        C  0.71184411  0.70850677  0.93490442    -0.09940
C992        C  0.72338804  0.71945804  0.96496013    -0.11500
C993        C  0.22409878  0.78038814  0.03559375    -0.09940
C994        C  0.21137752  0.79101655  0.06517189    -0.11500
C995        C  0.22402580  0.78000272  0.96461463    -0.09940
C996        C  0.21120607  0.79061886  0.93504694    -0.11500
C997        C  0.28055242  0.72564631  0.03609259    -0.09940
C998        C  0.29100207  0.71365353  0.06609656    -0.11500
C999        C  0.29054402  0.71169078  0.93528482    -0.09940
C1000       C  0.28008885  0.72453842  0.96491891    -0.11500
C1001       C  0.77866344  0.22330179  0.03611255    -0.09940
C1002       C  0.78835635  0.21186021  0.06665960    -0.11500
C1003       C  0.77895570  0.22324424  0.96447145    -0.09940
C1004       C  0.78869096  0.21196050  0.93392915    -0.11500
C1005       C  0.72139078  0.27679431  0.03553066    -0.09940
C1006       C  0.70941768  0.28690235  0.06567055    -0.11500
C1007       C  0.71116307  0.28742320  0.93355109    -0.09940
C1008       C  0.72155495  0.27635084  0.96398873    -0.11500
C1009       C  0.77739081  0.03515439  0.22269001    -0.09940
C1010       C  0.78922694  0.06542181  0.21280646    -0.11500
C1011       C  0.77661905  0.96367500  0.22222060    -0.09940
C1012       C  0.78677238  0.93346307  0.21042181    -0.11500
C1013       C  0.71119915  0.06610236  0.28813541    -0.09940
C1014       C  0.72121963  0.03565630  0.27677972    -0.11500
C1015       C  0.70930248  0.93377441  0.28722457    -0.09940
C1016       C  0.72087708  0.96405216  0.27699272    -0.11500
C1017       C  0.03568713  0.77559776  0.22010018    -0.09940
C1018       C  0.06626096  0.78705177  0.21047816    -0.11500
C1019       C  0.93336872  0.78720471  0.20978608    -0.09940
C1020       C  0.96398730  0.77585377  0.21926098    -0.11500
C1021       C  0.03420437  0.72254707  0.27804439    -0.09940
C1022       C  0.06393221  0.71146651  0.29015764    -0.11500
C1023       C  0.93245350  0.71173322  0.28694875    -0.09940
C1024       C  0.96286700  0.72182585  0.27565585    -0.11500
C1025       C  0.22106507  0.03598531  0.77731516    -0.09940
C1026       C  0.20918410  0.06618393  0.78734517    -0.11500
C1027       C  0.21194111  0.93422906  0.78977336    -0.09940
C1028       C  0.22190453  0.96450734  0.77798741    -0.11500
C1029       C  0.27656413  0.03614270  0.72234651    -0.09940
C1030       C  0.28668784  0.06633451  0.71049468    -0.11500
C1031       C  0.28920586  0.93450187  0.71300023    -0.09940
C1032       C  0.27734516  0.96470253  0.72302669    -0.11500
C1033       C  0.03457636  0.22120086  0.77783527    -0.09940
C1034       C  0.06424575  0.21008050  0.78984106    -0.11500
C1035       C  0.96364274  0.22134788  0.77753535    -0.09940
C1036       C  0.93403131  0.21013957  0.78967748    -0.11500
C1037       C  0.03551495  0.27851053  0.72428311    -0.09940
C1038       C  0.06603055  0.28865260  0.71321302    -0.11500
C1039       C  0.93376651  0.28809439  0.71106445    -0.09940
C1040       C  0.96395755  0.27808676  0.72304922    -0.11500
loop_ 
_geom_bond_atom_site_label_1 
_geom_bond_atom_site_label_2 
_geom_bond_distance 
_geom_bond_site_symmetry_2 
_ccdc_geom_bond_type 
C1            C2   1.365       .  D
C1         C1037   1.488   1_655  S
C1         C1040   1.485       .  S
C2         C1033   1.480   1_655  S
C2         C1035   1.482       .  S
C3            C4   1.362       .  D
C3         C1029   1.482       .  S
C3         C1032   1.482   1_545  S
C4         C1025   1.482       .  S
C4         C1028   1.483   1_545  S
C5            C6   1.365       .  D
C5         C1017   1.489   1_655  S
C5         C1020   1.486       .  S
C6         C1021   1.484   1_655  S
C6         C1024   1.487       .  S
C7            C8   1.362       .  D
C7         C1009   1.482   1_565  S
C7         C1011   1.484       .  S
C8         C1014   1.485   1_565  S
C8         C1016   1.483       .  S
C9           C10   1.365   1_556  D
C9         C1005   1.486   1_556  S
C9         C1008   1.487       .  S
C10        C1001   1.488       .  S
C10        C1003   1.487   1_554  S
C11          C12   1.365       .  D
C11         C993   1.483       .  S
C11         C995   1.482   1_554  S
C12         C997   1.484       .  S
C12        C1000   1.485   1_554  S
C13          C14   1.366       .  D
C13         C989   1.488       .  S
C13         C992   1.487   1_554  S
C14         C985   1.481       .  S
C14         C988   1.483   1_554  S
C15          C16   1.362   1_545  D
C15         C982   1.484       .  S
C15         C984   1.481   1_545  S
C16         C977   1.482   1_565  S
C16         C979   1.484       .  S
C17          C18   1.367       .  D
C17         C973   1.488   1_655  S
C17         C975   1.488       .  S
C18         C969   1.489   1_655  S
C18         C971   1.489       .  S
O19         Cr37   1.985       .  S
O19          C27   1.272       .  A
O20         Cr37   2.025       .  S
O20          C21   1.270       .  A
C21          O22   1.272       .  A
C21        C1027   1.466       .  S
O22         Cr38   1.985       .  S
O23         Cr38   2.030       .  S
O23          C24   1.270       .  A
C24          O25   1.271       .  A
C24         C970   1.473       .  S
O25         Cr39   1.983       .  S
O26         Cr39   2.035       .  S
O26          C27   1.274       .  A
C27         C996   1.466       .  S
O28         Cr37   1.976       .  S
O28          C36   1.253       .  A
O29         Cr37   1.965       .  S
O29          C30   1.250       .  A
C30          O31   1.253       .  A
C30         C966   1.399       .  S
O31         Cr38   1.969       .  S
O32         Cr38   1.944       .  S
O32          C33   1.245       .  A
C33          O34   1.255       .  A
C33         C964   1.391       .  S
O34         Cr39   1.973       .  S
O35         Cr39   1.954       .  S
O35          C36   1.245       .  A
C36         C967   1.400       .  S
Cr37         O40   1.783       .  S
Cr38         O40   1.787       .  S
Cr39         O40   1.783       .  S
O41         Cr59   2.031       .  S
O41          C49   1.270       .  A
O42         Cr59   1.986       .  S
O42          C43   1.273       .  A
C43          O44   1.270       .  A
C43         C980   1.467       .  S
O44         Cr60   2.026       .  S
O45         Cr60   1.988       .  S
O45          C46   1.272       .  A
C46          O47   1.273       .  A
C46         C987   1.467       .  S
O47         Cr61   2.033       .  S
O48         Cr61   1.983       .  S
O48          C49   1.270       .  A
C49         C972   1.473       .  S
O50         Cr59   1.945       .  S
O50          C58   1.245       .  A
O51         Cr59   1.969       .  S
O51          C52   1.253       .  A
C52          O53   1.250       .  A
C52         C959   1.400       .  S
O53         Cr60   1.967       .  S
O54         Cr60   1.975       .  S
O54          C55   1.253       .  A
C55          O56   1.245       .  A
C55         C961   1.400       .  S
O56         Cr61   1.954       .  S
O57         Cr61   1.972       .  S
O57          C58   1.255       .  A
C58         C963   1.391       .  S
Cr59         O62   1.787       .  S
Cr60         O62   1.784       .  S
Cr61         O62   1.784       .  S
O63         Cr81   2.028       .  S
O63          C71   1.269       .  A
O64         Cr81   1.985       .  S
O64          C65   1.272       .  A
C65          O66   1.269       .  A
C65         C953   1.464       .  S
O66         Cr82   2.024       .  S
O67         Cr82   1.985       .  S
O67          C68   1.272       .  A
C68          O69   1.274       .  A
C68         C994   1.467       .  S
O69         Cr83   2.035       .  S
O70         Cr83   1.984       .  S
O70          C71   1.271       .  A
C71        C1018   1.474       .  S
O72         Cr81   1.943       .  S
O72          C80   1.245       .  A
O73         Cr81   1.970       .  S
O73          C74   1.253       .  A
C74          O75   1.250       .  A
C74         C957   1.400       .  S
O75         Cr82   1.966       .  S
O76         Cr82   1.974       .  S
O76          C77   1.253       .  A
C77          O78   1.245       .  A
C77         C968   1.400       .  S
O78         Cr83   1.955       .  S
O79         Cr83   1.973       .  S
O79          C80   1.255       .  A
C80         C956   1.390       .  S
Cr81         O84   1.787       .  S
Cr82         O84   1.784       .  S
Cr83         O84   1.784       .  S
O85        Cr103   1.987       .  S
O85          C93   1.272       .  A
O86        Cr103   2.027       .  S
O86          C87   1.270       .  A
C87          O88   1.272       .  A
C87        C1012   1.467       .  S
O88        Cr104   1.986       .  S
O89        Cr104   2.028       .  S
O89          C90   1.269       .  A
C90          O91   1.270       .  A
C90        C1019   1.471       .  S
O91        Cr105   1.981       .  S
O92        Cr105   2.030       .  S
O92          C93   1.273       .  A
C93         C986   1.465       .  S
O94        Cr103   1.975       .  S
O94         C102   1.253       .  A
O95        Cr103   1.966       .  S
O95          C96   1.250       .  A
C96          O97   1.253       .  A
C96         C952   1.400       .  S
O97        Cr104   1.969       .  S
O98        Cr104   1.945       .  S
O98          C99   1.245       .  A
C99         O100   1.254       .  A
C99         C955   1.390       .  S
O100       Cr105   1.971       .  S
O101       Cr105   1.954       .  S
O101        C102   1.245       .  A
C102        C962   1.400       .  S
Cr103       O106   1.783       .  S
Cr104       O106   1.787       .  S
Cr105       O106   1.784       .  S
O107       Cr125   2.032       .  S
O107        C115   1.273       .  A
O108       Cr125   1.982       .  S
O108        C109   1.270       .  A
C109        O110   1.269       .  A
C109       C1004   1.471       .  S
O110       Cr126   2.027       .  S
O111       Cr126   1.984       .  S
O111        C112   1.272       .  A
C112        O113   1.270       .  A
C112        C978   1.465       .  S
O113       Cr127   2.026       .  S
O114       Cr127   1.986       .  S
O114        C115   1.272       .  A
C115       C1036   1.466       .  S
O116       Cr125   1.955       .  S
O116        C124   1.245       .  A
O117       Cr125   1.972       .  S
O117        C118   1.255       .  A
C118        O119   1.245       .  A
C118        C950   1.390       .  S
O119       Cr126   1.943       .  S
O120       Cr126   1.969       .  S
O120        C121   1.253       .  A
C121        O122   1.251       .  A
C121        C960   1.400       .  S
O122       Cr127   1.967       .  S
O123       Cr127   1.975       .  S
O123        C124   1.253       .  A
C124        C947   1.401       .  S
Cr125       O128   1.783       .  S
Cr126       O128   1.787       .  S
Cr127       O128   1.783       .  S
O129       Cr147   1.982       .  S
O129        C137   1.270       .  A
O130       Cr147   2.030       .  S
O130        C131   1.273       .  A
C131        O132   1.271       .  A
C131        C943   1.463       .  S
O132       Cr148   1.984       .  S
O133       Cr148   2.026       .  S
O133        C134   1.270       .  A
C134        O135   1.272       .  A
C134       C1010   1.465       .  S
O135       Cr149   1.984       .  S
O136       Cr149   2.029       .  S
O136        C137   1.269       .  A
C137       C1002   1.472       .  S
O138       Cr147   1.972       .  S
O138        C146   1.255       .  A
O139       Cr147   1.955       .  S
O139        C140   1.245       .  A
C140        O141   1.253       .  A
C140        C946   1.401       .  S
O141       Cr148   1.976       .  S
O142       Cr148   1.966       .  S
O142        C143   1.250       .  A
C143        O144   1.253       .  A
C143        C951   1.400       .  S
O144       Cr149   1.970       .  S
O145       Cr149   1.943       .  S
O145        C146   1.245       .  A
C146        C949   1.390       .  S
Cr147       O150   1.783       .  S
Cr148       O150   1.783       .  S
Cr149       O150   1.786       .  S
O151       Cr169   1.985       .  S
O151        C159   1.272       .  A
O152       Cr169   2.027       .  S
O152        C153   1.269       .  A
C153        O154   1.270       .  A
C153        C940   1.470       .  S
O154       Cr170   1.981       .  S
O155       Cr170   2.029       .  S
O155        C156   1.272       .  A
C156        O157   1.271       .  A
C156       C1034   1.463       .  S
O157       Cr171   1.985       .  S
O158       Cr171   2.026       .  S
O158        C159   1.270       .  A
C159       C1026   1.466       .  S
O160       Cr169   1.969       .  S
O160        C168   1.253       .  A
O161       Cr169   1.944       .  S
O161        C162   1.245       .  A
C162        O163   1.255       .  A
C162        C941   1.390       .  S
O163       Cr170   1.971       .  S
O164       Cr170   1.955       .  S
O164        C165   1.245       .  A
C165        O166   1.253       .  A
C165        C948   1.401       .  S
O166       Cr171   1.976       .  S
O167       Cr171   1.965       .  S
O167        C168   1.250       .  A
C168        C965   1.399       .  S
Cr169       O172   1.787       .  S
Cr170       O172   1.783       .  S
Cr171       O172   1.783       .  S
O173       Cr191   2.029       .  S
O173        C181   1.270       .  A
O174       Cr191   1.985       .  S
O174        C175   1.272       .  A
C175        O176   1.270       .  A
C175        C935   1.465       .  S
O176       Cr192   2.026       .  S
O177       Cr192   1.984       .  S
O177        C178   1.271       .  A
C178        O179   1.273       .  A
C178        C933   1.465       .  S
O179       Cr193   2.032       .  S
O180       Cr193   1.983       .  S
O180        C181   1.270       .  A
C181        C938   1.472       .  S
O182       Cr191   1.943       .  S
O182        C190   1.245       .  A
O183       Cr191   1.970       .  S
O183        C184   1.253       .  A
C184        O185   1.250       .  A
C184        C958   1.400       .  S
O185       Cr192   1.966       .  S
O186       Cr192   1.976       .  S
O186        C187   1.253       .  A
C187        O188   1.245       .  A
C187        C945   1.401       .  S
O188       Cr193   1.955       .  S
O189       Cr193   1.973       .  S
O189        C190   1.255       .  A
C190        C942   1.390       .  S
Cr191       O194   1.786       .  S
Cr192       O194   1.783       .  S
Cr193       O194   1.783       .  S
C195        C196   1.367       .  D
C195        C927   1.489       .  S
C195        C931   1.493       .  S
C196        C925   1.487       .  S
C196        C930   1.483       .  S
C197        C198   1.363       .  D
C197        C919   1.485       .  S
C197        C924   1.486       .  S
C198        C918   1.481       .  S
C198        C921   1.480       .  S
C199        C200   1.365       .  D
C199        C909   1.487       .  S
C199        C914   1.490       .  S
C200        C911   1.487       .  S
C200        C915   1.484       .  S
C201        C202   1.364   1_554  D
C201        C937   1.487       .  S
C201        C939   1.486   1_554  S
C202        C905   1.483   1_556  S
C202        C907   1.484       .  S
C203        C204   1.361   1_545  D
C203        C936   1.482       .  S
C203        C954   1.481   1_545  S
C204        C901   1.481   1_565  S
C204        C904   1.482       .  S
C205        C206   1.363       .  D
C205        C895   1.480       .  S
C205        C899   1.479       .  S
C206        C893   1.485       .  S
C206        C897   1.486       .  S
C207        C208   1.365       .  D
C207        C890   1.487       .  S
C207        C892   1.486       .  S
C208        C885   1.487       .  S
C208        C888   1.487       .  S
C209        C210   1.363       .  D
C209        C880   1.484       .  S
C209        C883   1.482       .  S
C210        C878   1.481       .  S
C210        C881   1.481       .  S
O211       Cr229   1.984       .  S
O211        C219   1.272       .  A
O212       Cr229   2.027       .  S
O212        C213   1.269       .  A
C213        O214   1.270       .  A
C213        C886   1.471       .  S
O214       Cr230   1.982       .  S
O215       Cr230   2.031       .  S
O215        C216   1.273       .  A
C216        O217   1.272       .  A
C216        C877   1.465       .  S
O217       Cr231   1.986       .  S
O218       Cr231   2.024       .  S
O218        C219   1.269       .  A
C219        C903   1.464       .  S
O220       Cr229   1.970       .  S
O220        C228   1.253       .  A
O221       Cr229   1.944       .  S
O221        C222   1.245       .  A
C222        O223   1.255       .  A
C222        C871   1.390       .  S
O223       Cr230   1.972       .  S
O224       Cr230   1.955       .  S
O224        C225   1.245       .  A
C225        O226   1.253       .  A
C225        C873   1.400       .  S
O226       Cr231   1.974       .  S
O227       Cr231   1.967       .  S
O227        C228   1.251       .  A
C228        C875   1.401       .  S
Cr229       O232   1.787       .  S
Cr230       O232   1.783       .  S
Cr231       O232   1.783       .  S
O233       Cr251   1.984       .  S
O233        C241   1.271       .  A
O234       Cr251   2.025       .  S
O234        C235   1.270       .  A
C235        O236   1.272       .  A
C235        C902   1.464       .  S
O236       Cr252   1.985       .  S
O237       Cr252   2.028       .  S
O237        C238   1.269       .  A
C238        O239   1.271       .  A
C238        C928   1.473       .  S
O239       Cr253   1.984       .  S
O240       Cr253   2.031       .  S
O240        C241   1.273       .  A
C241        C917   1.464       .  S
O242       Cr251   1.975       .  S
O242        C250   1.253       .  A
O243       Cr251   1.967       .  S
O243        C244   1.250       .  A
C244        O245   1.253       .  A
C244        C876   1.401       .  S
O245       Cr252   1.969       .  S
O246       Cr252   1.944       .  S
O246        C247   1.246       .  A
C247        O248   1.255       .  A
C247        C870   1.389       .  S
O248       Cr253   1.971       .  S
O249       Cr253   1.954       .  S
O249        C250   1.245       .  A
C250        C867   1.400       .  S
Cr251       O254   1.784       .  S
Cr252       O254   1.786       .  S
Cr253       O254   1.785       .  S
O255       Cr273   2.026       .  S
O255        C263   1.270       .  A
O256       Cr273   1.983       .  S
O256        C257   1.271       .  A
C257        O258   1.273       .  A
C257        C882   1.465       .  S
O258       Cr274   2.031       .  S
O259       Cr274   1.984       .  S
O259        C260   1.271       .  A
C260        O261   1.270       .  A
C260        C861   1.472       .  S
O261       Cr275   2.029       .  S
O262       Cr275   1.985       .  S
O262        C263   1.272       .  A
C263       C1015   1.466       .  S
O264       Cr273   1.965       .  S
O264        C272   1.250       .  A
O265       Cr273   1.977       .  S
O265        C266   1.254       .  A
C266        O267   1.245       .  A
C266        C874   1.400       .  S
O267       Cr274   1.954       .  S
O268       Cr274   1.972       .  S
O268        C269   1.255       .  A
C269        O270   1.245       .  A
C269        C863   1.391       .  S
O270       Cr275   1.946       .  S
O271       Cr275   1.970       .  S
O271        C272   1.253       .  A
C272        C865   1.401       .  S
Cr273       O276   1.784       .  S
Cr274       O276   1.785       .  S
Cr275       O276   1.786       .  S
O277       Cr295   2.034       .  S
O277        C285   1.274       .  A
O278       Cr295   1.988       .  S
O278        C279   1.273       .  A
C279        O280   1.269       .  A
C279        C932   1.477       .  S
O280       Cr296   2.026       .  S
O281       Cr296   1.988       .  S
O281        C282   1.273       .  A
C282        O283   1.269       .  A
C282       C1013   1.467       .  S
O283       Cr297   2.022       .  S
O284       Cr297   1.987       .  S
O284        C285   1.273       .  A
C285        C858   1.468       .  S
O286       Cr295   1.958       .  S
O286        C294   1.246       .  A
O287       Cr295   1.968       .  S
O287        C288   1.254       .  A
C288        O289   1.245       .  A
C288        C869   1.389       .  S
O289       Cr296   1.943       .  S
O290       Cr296   1.967       .  S
O290        C291   1.252       .  A
C291        O292   1.251       .  A
C291        C866   1.401       .  S
O292       Cr297   1.969       .  S
O293       Cr297   1.972       .  S
O293        C294   1.252       .  A
C294        C859   1.402       .  S
Cr295       O298   1.787       .  S
Cr296       O298   1.791       .  S
Cr297       O298   1.786       .  S
O299       Cr317   1.983       .  S
O299        C307   1.270       .  A
O300       Cr317   2.032       .  S
O300        C301   1.273       .  A
C301        O302   1.271       .  A
C301        C900   1.463       .  S
O302       Cr318   1.983       .  S
O303       Cr318   2.024       .  S
O303        C304   1.269       .  A
C304        O305   1.272       .  A
C304        C983   1.465       .  S
O305       Cr319   1.986       .  S
O306       Cr319   2.027       .  S
O306        C307   1.269       .  A
C307        C851   1.472       .  S
O308       Cr317   1.972       .  S
O308        C316   1.255       .  A
O309       Cr317   1.956       .  S
O309        C310   1.245       .  A
C310        O311   1.253       .  A
C310        C855   1.401       .  S
O311       Cr318   1.975       .  S
O312       Cr318   1.965       .  S
O312        C313   1.250       .  A
C313        O314   1.253       .  A
C313        C853   1.398       .  S
O314       Cr319   1.968       .  S
O315       Cr319   1.945       .  S
O315        C316   1.245       .  A
C316        C864   1.391       .  S
Cr317       O320   1.783       .  S
Cr318       O320   1.783       .  S
Cr319       O320   1.786       .  S
O321       Cr339   1.986       .  S
O321        C329   1.273       .  A
O322       Cr339   2.031       .  S
O322        C323   1.270       .  A
C323        O324   1.271       .  A
C323        C847   1.475       .  S
O324       Cr340   1.985       .  S
O325       Cr340   2.033       .  S
O325        C326   1.273       .  A
C326        O327   1.271       .  A
C326        C845   1.466       .  S
O327       Cr341   1.984       .  S
O328       Cr341   2.025       .  S
O328        C329   1.269       .  A
C329        C981   1.467       .  S
O330       Cr339   1.969       .  S
O330        C338   1.253       .  A
O331       Cr339   1.944       .  S
O331        C332   1.245       .  A
C332        O333   1.255       .  A
C332        C849   1.390       .  S
O333       Cr340   1.972       .  S
O334       Cr340   1.957       .  S
O334        C335   1.246       .  A
C335        O336   1.253       .  A
C335        C860   1.403       .  S
O336       Cr341   1.977       .  S
O337       Cr341   1.964       .  S
O337        C338   1.250       .  A
C338        C854   1.399       .  S
Cr339       O342   1.787       .  S
Cr340       O342   1.783       .  S
Cr341       O342   1.784       .  S
O343       Cr361   2.026       .  S
O343        C351   1.270       .  A
O344       Cr361   1.983       .  S
O344        C345   1.271       .  A
C345        O346   1.273       .  A
C345        C922   1.464       .  S
O346       Cr362   2.031       .  S
O347       Cr362   1.982       .  S
O347        C348   1.270       .  A
C348        O349   1.270       .  A
C348        C841   1.472       .  S
O349       Cr363   2.030       .  S
O350       Cr363   1.986       .  S
O350        C351   1.272       .  A
C351       C1030   1.466       .  S
O352       Cr361   1.965       .  S
O352        C360   1.250       .  A
O353       Cr361   1.976       .  S
O353        C354   1.253       .  A
C354        O355   1.245       .  A
C354        C868   1.400       .  S
O355       Cr362   1.955       .  S
O356       Cr362   1.972       .  S
O356        C357   1.255       .  A
C357        O358   1.245       .  A
C357        C850   1.390       .  S
O358       Cr363   1.943       .  S
O359       Cr363   1.970       .  S
O359        C360   1.253       .  A
C360        C843   1.399       .  S
Cr361       O364   1.783       .  S
Cr362       O364   1.783       .  S
Cr363       O364   1.786       .  S
O365       Cr383   2.026       .  S
O365        C373   1.270       .  A
O366       Cr383   1.983       .  S
O366        C367   1.271       .  A
C367        O368   1.273       .  A
C367        C896   1.464       .  S
O368       Cr384   2.031       .  S
O369       Cr384   1.982       .  S
O369        C370   1.270       .  A
C370        O371   1.269       .  A
C370        C887   1.472       .  S
O371       Cr385   2.029       .  S
O372       Cr385   1.985       .  S
O372        C373   1.272       .  A
C373       C1031   1.465       .  S
O374       Cr383   1.964       .  S
O374        C382   1.250       .  A
O375       Cr383   1.977       .  S
O375        C376   1.254       .  A
C376        O377   1.245       .  A
C376        C856   1.401       .  S
O377       Cr384   1.955       .  S
O378       Cr384   1.973       .  S
O378        C379   1.255       .  A
C379        O380   1.245       .  A
C379        C872   1.390       .  S
O380       Cr385   1.943       .  S
O381       Cr385   1.970       .  S
O381        C382   1.253       .  A
C382        C844   1.399       .  S
Cr383       O386   1.783       .  S
Cr384       O386   1.783       .  S
Cr385       O386   1.786       .  S
C387        C388   1.365       .  D
C387        C852   1.488       .  S
C387        C862   1.488       .  S
C388        C837   1.485       .  S
C388        C840   1.485       .  S
C389        C390   1.365       .  D
C389        C830   1.483       .  S
C389        C831   1.488       .  S
C390        C834   1.485       .  S
C390        C835   1.480       .  S
C391        C392   1.367       .  D
C391        C842   1.488       .  S
C391        C848   1.490       .  S
C392        C825   1.488       .  S
C392        C827   1.487       .  S
O393       Cr411   1.986       .  S
O393        C401   1.273       .  A
O394       Cr411   2.029       .  S
O394        C395   1.270       .  A
C395        O396   1.270       .  A
C395        C990   1.473       .  S
O396       Cr412   1.983       .  S
O397       Cr412   2.039       .  S
O397        C398   1.275       .  A
C398        O399   1.273       .  A
C398        C818   1.472       .  S
O399       Cr413   1.988       .  S
O400       Cr413   2.024       .  S
O400        C401   1.269       .  A
C401        C884   1.465       .  S
O402       Cr411   1.971       .  S
O402        C410   1.253       .  A
O403       Cr411   1.944       .  S
O403        C404   1.245       .  A
C404        O405   1.256       .  A
C404        C820   1.394       .  S
O405       Cr412   1.978       .  S
O406       Cr412   1.952       .  S
O406        C407   1.244       .  A
C407        O408   1.251       .  A
C407        C822   1.394       .  S
O408       Cr413   1.968       .  S
O409       Cr413   1.968       .  S
O409        C410   1.251       .  A
C410        C823   1.403       .  S
Cr411       O414   1.788       .  S
Cr412       O414   1.784       .  S
Cr413       O414   1.784       .  S
O415       Cr433   2.021       .  S
O415        C423   1.267       .  A
O416       Cr433   1.991       .  S
O416        C417   1.275       .  A
C417        O418   1.272       .  A
C417        C811   1.465       .  S
O418       Cr434   2.026       .  S
O419       Cr434   1.990       .  S
O419        C420   1.273       .  A
C420        O421   1.271       .  A
C420        C991   1.471       .  S
O421       Cr435   2.027       .  S
O422       Cr435   1.987       .  S
O422        C423   1.272       .  A
C423        C898   1.469       .  S
O424       Cr433   1.965       .  S
O424        C432   1.250       .  A
O425       Cr433   1.964       .  S
O425        C426   1.249       .  A
C426        O427   1.250       .  A
C426        C815   1.404       .  S
O427       Cr434   1.973       .  S
O428       Cr434   1.966       .  S
O428        C429   1.252       .  A
C429        O430   1.245       .  A
C429        C819   1.393       .  S
O430       Cr435   1.951       .  S
O431       Cr435   1.966       .  S
O431        C432   1.252       .  A
C432        C814   1.399       .  S
Cr433       O436   1.787       .  S
Cr434       O436   1.784       .  S
Cr435       O436   1.788       .  S
O437       Cr455   1.990       .  S
O437        C445   1.273       .  A
O438       Cr455   2.026       .  S
O438        C439   1.271       .  A
C439        O440   1.271       .  A
C439        C998   1.468       .  S
O440       Cr456   1.986       .  S
O441       Cr456   2.027       .  S
O441        C442   1.272       .  A
C442        O443   1.275       .  A
C442        C879   1.467       .  S
O443       Cr457   1.993       .  S
O444       Cr457   2.024       .  S
O444        C445   1.268       .  A
C445        C913   1.473       .  S
O446       Cr455   1.962       .  S
O446        C454   1.252       .  A
O447       Cr455   1.953       .  S
O447        C448   1.246       .  A
C448        O449   1.253       .  A
C448        C808   1.400       .  S
O449       Cr456   1.973       .  S
O450       Cr456   1.971       .  S
O450        C451   1.249       .  A
C451        O452   1.250       .  A
C451        C824   1.402       .  S
O452       Cr457   1.963       .  S
O453       Cr457   1.964       .  S
O453        C454   1.250       .  A
C454        C809   1.396       .  S
Cr455       O458   1.789       .  S
Cr456       O458   1.784       .  S
Cr457       O458   1.787       .  S
O459       Cr477   2.039       .  S
O459        C467   1.275       .  A
O460       Cr477   1.983       .  S
O460        C461   1.270       .  A
C461        O462   1.269       .  A
C461        C832   1.472       .  S
O462       Cr478   2.027       .  S
O463       Cr478   1.988       .  S
O463        C464   1.274       .  A
C464        O465   1.270       .  A
C464        C894   1.468       .  S
O465       Cr479   2.025       .  S
O466       Cr479   1.985       .  S
O466        C467   1.272       .  A
C467        C999   1.469       .  S
O468       Cr477   1.954       .  S
O468        C476   1.245       .  A
O469       Cr477   1.979       .  S
O469        C470   1.257       .  A
C470        O471   1.246       .  A
C470        C806   1.397       .  S
O471       Cr478   1.946       .  S
O472       Cr478   1.966       .  S
O472        C473   1.252       .  A
C473        O474   1.250       .  A
C473        C813   1.398       .  S
O474       Cr479   1.967       .  S
O475       Cr479   1.974       .  S
O475        C476   1.253       .  A
C476        C807   1.399       .  S
Cr477       O480   1.784       .  S
Cr478       O480   1.788       .  S
Cr479       O480   1.784       .  S
O481       Cr499   2.030       .  S
O481        C489   1.272       .  A
O482       Cr499   1.989       .  S
O482        C483   1.273       .  A
C483        O484   1.267       .  A
C483       C1007   1.470       .  S
O484       Cr500   2.019       .  S
O485       Cr500   1.991       .  S
O485        C486   1.275       .  A
C486        O487   1.271       .  A
C486        C799   1.463       .  S
O487       Cr501   2.023       .  S
O488       Cr501   1.987       .  S
O488        C489   1.272       .  A
C489        C828   1.472       .  S
O490       Cr499   1.950       .  S
O490        C498   1.245       .  A
O491       Cr499   1.966       .  S
O491        C492   1.253       .  A
C492        O493   1.251       .  A
C492        C804   1.399       .  S
O493       Cr500   1.965       .  S
O494       Cr500   1.963       .  S
O494        C495   1.249       .  A
C495        O496   1.250       .  A
C495        C816   1.404       .  S
O496       Cr501   1.973       .  S
O497       Cr501   1.965       .  S
O497        C498   1.252       .  A
C498        C801   1.393       .  S
Cr499       O502   1.788       .  S
Cr500       O502   1.787       .  S
Cr501       O502   1.784       .  S
O503       Cr521   2.029       .  S
O503        C511   1.269       .  A
O504       Cr521   1.988       .  S
O504        C505   1.273       .  A
C505        O506   1.271       .  A
C505       C1006   1.470       .  S
O506       Cr522   2.028       .  S
O507       Cr522   1.988       .  S
O507        C508   1.273       .  A
C508        O509   1.273       .  A
C508        C929   1.467       .  S
O509       Cr523   2.032       .  S
O510       Cr523   1.980       .  S
O510        C511   1.269       .  A
C511        C795   1.470       .  S
O512       Cr521   1.946       .  S
O512        C520   1.245       .  A
O513       Cr521   1.966       .  S
O513        C514   1.252       .  A
C514        O515   1.250       .  A
C514        C803   1.398       .  S
O515       Cr522   1.966       .  S
O516       Cr522   1.975       .  S
O516        C517   1.253       .  A
C517        O518   1.245       .  A
C517        C797   1.399       .  S
O518       Cr523   1.954       .  S
O519       Cr523   1.978       .  S
O519        C520   1.256       .  A
C520        C821   1.396       .  S
Cr521       O524   1.788       .  S
Cr522       O524   1.784       .  S
Cr523       O524   1.784       .  S
O525       Cr543   1.988       .  S
O525        C533   1.273       .  A
O526       Cr543   2.032       .  S
O526        C527   1.270       .  A
C527        O528   1.269       .  A
C527        C826   1.473       .  S
O528       Cr544   1.980       .  S
O529       Cr544   2.033       .  S
O529        C530   1.274       .  A
C530        O531   1.273       .  A
C530        C829   1.468       .  S
O531       Cr545   1.988       .  S
O532       Cr545   2.022       .  S
O532        C533   1.269       .  A
C533        C908   1.466       .  S
O534       Cr543   1.971       .  S
O534        C542   1.253       .  A
O535       Cr543   1.944       .  S
O535        C536   1.245       .  A
C536        O537   1.256       .  A
C536        C802   1.394       .  S
O537       Cr544   1.977       .  S
O538       Cr544   1.954       .  S
O538        C539   1.245       .  A
C539        O540   1.251       .  A
C539        C805   1.395       .  S
O540       Cr545   1.968       .  S
O541       Cr545   1.969       .  S
O541        C542   1.251       .  A
C542        C793   1.403       .  S
Cr543       O546   1.788       .  S
Cr544       O546   1.784       .  S
Cr545       O546   1.784       .  S
O547       Cr565   1.989       .  S
O547        C555   1.272       .  A
O548       Cr565   2.030       .  S
O548        C549   1.273       .  A
C549        O550   1.274       .  A
C549        C906   1.466       .  S
O550       Cr566   1.989       .  S
O551       Cr566   2.019       .  S
O551        C552   1.267       .  A
C552        O553   1.274       .  A
C552        C910   1.470       .  S
O553       Cr567   1.991       .  S
O554       Cr567   2.026       .  S
O554        C555   1.271       .  A
C555        C926   1.470       .  S
O556       Cr565   1.973       .  S
O556        C564   1.254       .  A
O557       Cr565   1.971       .  S
O557        C558   1.249       .  A
C558        O559   1.249       .  A
C558        C794   1.402       .  S
O559       Cr566   1.962       .  S
O560       Cr566   1.964       .  S
O560        C561   1.250       .  A
C561        O562   1.252       .  A
C561        C810   1.396       .  S
O562       Cr567   1.962       .  S
O563       Cr567   1.954       .  S
O563        C564   1.246       .  A
C564        C798   1.400       .  S
Cr565       O568   1.785       .  S
Cr566       O568   1.787       .  S
Cr567       O568   1.788       .  S
C569        C570   1.363       .  D
C569        C800   1.480       .  S
C569        C812   1.482       .  S
C570        C790   1.485       .  S
C570        C791   1.483       .  S
C571        C572   1.363       .  D
C571        C785   1.482   1_655  S
C571        C787   1.483       .  S
C572        C934   1.481   1_655  S
C572        C944   1.479       .  S
C573        C574   1.365       .  D
C573        C846   1.482       .  S
C573        C857   1.484       .  S
C574        C781   1.483       .  S
C574        C783   1.485       .  S
C575        C576   1.367       .  D
C575        C778   1.492       .  S
C575        C779   1.491       .  S
C576        C796   1.486       .  S
C576        C817   1.487       .  S
O577       Cr595   2.022       .  S
O577        C585   1.268       .  A
O578       Cr595   1.995       .  S
O578        C579   1.276       .  A
C579        O580   1.271       .  A
C579       C1022   1.467       .  S
O580       Cr596   2.023       .  S
O581       Cr596   1.986       .  S
O581        C582   1.271       .  A
C582        O583   1.270       .  A
C582        C916   1.468       .  S
O583       Cr597   2.025       .  S
O584       Cr597   1.987       .  S
O584        C585   1.272       .  A
C585        C889   1.470       .  S
O586       Cr595   1.967       .  S
O586        C594   1.251       .  A
O587       Cr595   1.962       .  S
O587        C588   1.249       .  A
C588        O589   1.250       .  A
C588        C774   1.404       .  S
O589       Cr596   1.973       .  S
O590       Cr596   1.970       .  S
O590        C591   1.253       .  A
C591        O592   1.245       .  A
C591        C775   1.395       .  S
O592       Cr597   1.949       .  S
O593       Cr597   1.965       .  S
O593        C594   1.252       .  A
C594        C771   1.400       .  S
Cr595       O598   1.787       .  S
Cr596       O598   1.785       .  S
Cr597       O598   1.791       .  S
O599       Cr617   2.030       .  S
O599        C607   1.270       .  A
O600       Cr617   1.989       .  S
O600        C601   1.274       .  A
C601        O602   1.269       .  A
C601       C1023   1.469       .  S
O602       Cr618   2.022       .  S
O603       Cr618   1.993       .  S
O603        C604   1.275       .  A
C604        O605   1.272       .  A
C604        C838   1.469       .  S
O605       Cr619   2.027       .  S
O606       Cr619   1.986       .  S
O606        C607   1.272       .  A
C607        C780   1.476       .  S
O608       Cr617   1.945       .  S
O608        C616   1.245       .  A
O609       Cr617   1.969       .  S
O609        C610   1.252       .  A
C610        O611   1.252       .  A
C610        C773   1.406       .  S
O611       Cr618   1.972       .  S
O612       Cr618   1.967       .  S
O612        C613   1.251       .  A
C613        O614   1.246       .  A
C613        C767   1.399       .  S
O614       Cr619   1.958       .  S
O615       Cr619   1.967       .  S
O615        C616   1.253       .  A
C616        C770   1.389       .  S
Cr617       O620   1.791       .  S
Cr618       O620   1.787       .  S
Cr619       O620   1.788       .  S
O621       Cr639   1.983       .  S
O621        C629   1.271       .  A
O622       Cr639   2.036       .  S
O622        C623   1.272       .  A
C623        O624   1.271       .  A
C623        C976   1.472       .  S
O624       Cr640   1.983       .  S
O625       Cr640   2.032       .  S
O625        C626   1.272       .  A
C626        O627   1.271       .  A
C626        C792   1.468       .  S
O627       Cr641   1.983       .  S
O628       Cr641   2.030       .  S
O628        C629   1.271       .  A
C629        C839   1.469       .  S
O630       Cr639   1.982       .  S
O630        C638   1.256       .  A
O631       Cr639   1.946       .  S
O631        C632   1.245       .  A
C632        O633   1.255       .  A
C632        C764   1.393       .  S
O633       Cr640   1.975       .  S
O634       Cr640   1.952       .  S
O634        C635   1.246       .  A
C635        O636   1.254       .  A
C635        C766   1.396       .  S
O636       Cr641   1.975       .  S
O637       Cr641   1.951       .  S
O637        C638   1.247       .  A
C638        C768   1.400       .  S
Cr639       O642   1.785       .  S
Cr640       O642   1.784       .  S
Cr641       O642   1.784       .  S
O643       Cr661   2.031       .  S
O643        C651   1.270       .  A
O644       Cr661   1.990       .  S
O644        C645   1.274       .  A
C645        O646   1.270       .  A
C645        C891   1.470       .  S
O646       Cr662   2.025       .  S
O647       Cr662   1.985       .  S
O647        C648   1.271       .  A
C648        O649   1.272       .  A
C648        C836   1.463       .  S
O649       Cr663   2.029       .  S
O650       Cr663   1.982       .  S
O650        C651   1.270       .  A
C651        C974   1.473       .  S
O652       Cr661   1.947       .  S
O652        C660   1.246       .  A
O653       Cr661   1.966       .  S
O653        C654   1.252       .  A
C654        O655   1.251       .  A
C654        C772   1.399       .  S
O655       Cr662   1.966       .  S
O656       Cr662   1.976       .  S
O656        C657   1.253       .  A
C657        O658   1.246       .  A
C657        C762   1.401       .  S
O658       Cr663   1.956       .  S
O659       Cr663   1.972       .  S
O659        C660   1.254       .  A
C660        C763   1.393       .  S
Cr661       O664   1.787       .  S
Cr662       O664   1.784       .  S
Cr663       O664   1.785       .  S
O665       Cr683   1.990       .  S
O665        C673   1.274       .  A
O666       Cr683   2.030       .  S
O666        C667   1.269       .  A
C667        O668   1.271       .  A
C667        C777   1.476       .  S
O668       Cr684   1.984       .  S
O669       Cr684   2.031       .  S
O669        C670   1.273       .  A
C670        O671   1.273       .  A
C670        C782   1.467       .  S
O671       Cr685   1.988       .  S
O672       Cr685   2.022       .  S
O672        C673   1.269       .  A
C673        C788   1.466       .  S
O674       Cr683   1.970       .  S
O674        C682   1.252       .  A
O675       Cr683   1.944       .  S
O675        C676   1.246       .  A
C676        O677   1.254       .  A
C676        C769   1.390       .  S
O677       Cr684   1.970       .  S
O678       Cr684   1.955       .  S
O678        C679   1.245       .  A
C679        O680   1.251       .  A
C679        C757   1.398       .  S
O680       Cr685   1.969       .  S
O681       Cr685   1.971       .  S
O681        C682   1.251       .  A
C682        C760   1.404       .  S
Cr683       O686   1.789       .  S
Cr684       O686   1.786       .  S
Cr685       O686   1.784       .  S
O687       Cr705   1.987       .  S
O687        C695   1.272       .  A
O688       Cr705   2.028       .  S
O688        C689   1.272       .  A
C689        O690   1.274       .  A
C689        C786   1.465       .  S
O690       Cr706   1.990       .  S
O691       Cr706   2.020       .  S
O691        C692   1.267       .  A
C692        O693   1.272       .  A
C692        C920   1.469       .  S
O693       Cr707   1.988       .  S
O694       Cr707   2.029       .  S
O694        C695   1.271       .  A
C695        C912   1.471       .  S
O696       Cr705   1.971       .  S
O696        C704   1.253       .  A
O697       Cr705   1.970       .  S
O697        C698   1.250       .  A
C698        O699   1.250       .  A
C698        C759   1.403       .  S
O699       Cr706   1.964       .  S
O700       Cr706   1.966       .  S
O700        C701   1.251       .  A
C701        O702   1.253       .  A
C701        C756   1.400       .  S
O702       Cr707   1.967       .  S
O703       Cr707   1.949       .  S
O703        C704   1.245       .  A
C704        C776   1.395       .  S
Cr705       O708   1.784       .  S
Cr706       O708   1.786       .  S
Cr707       O708   1.787       .  S
O709       Cr727   2.037       .  S
O709        C717   1.273       .  A
O710       Cr727   1.983       .  S
O710        C711   1.271       .  A
C711        O712   1.271       .  A
C711        C789   1.469       .  S
O712       Cr728   2.032       .  S
O713       Cr728   1.983       .  S
O713        C714   1.271       .  A
C714        O715   1.272       .  A
C714       C1039   1.470       .  S
O715       Cr729   2.035       .  S
O716       Cr729   1.980       .  S
O716        C717   1.269       .  A
C717        C784   1.469       .  S
O718       Cr727   1.949       .  S
O718        C726   1.246       .  A
O719       Cr727   1.979       .  S
O719        C720   1.256       .  A
C720        O721   1.246       .  A
C720        C765   1.396       .  S
O721       Cr728   1.949       .  S
O722       Cr728   1.976       .  S
O722        C723   1.255       .  A
C723        O724   1.245       .  A
C723        C753   1.393       .  S
O724       Cr729   1.948       .  S
O725       Cr729   1.982       .  S
O725        C726   1.256       .  A
C726        C758   1.399       .  S
Cr727       O730   1.784       .  S
Cr728       O730   1.784       .  S
Cr729       O730   1.782       .  S
O731       Cr749   1.984       .  S
O731        C739   1.271       .  A
O732       Cr749   2.033       .  S
O732        C733   1.274       .  A
C733        O734   1.273       .  A
C733        C833   1.469       .  S
O734       Cr750   1.990       .  S
O735       Cr750   2.028       .  S
O735        C736   1.270       .  A
C736        O737   1.274       .  A
C736        C923   1.470       .  S
O737       Cr751   1.988       .  S
O738       Cr751   2.025       .  S
O738        C739   1.269       .  A
C739       C1038   1.472       .  S
O740       Cr749   1.973       .  S
O740        C748   1.255       .  A
O741       Cr749   1.956       .  S
O741        C742   1.245       .  A
C742        O743   1.253       .  A
C742        C761   1.401       .  S
O743       Cr750   1.974       .  S
O744       Cr750   1.969       .  S
O744        C745   1.251       .  A
C745        O746   1.251       .  A
C745        C755   1.400       .  S
O746       Cr751   1.965       .  S
O747       Cr751   1.948       .  S
O747        C748   1.246       .  A
C748        C754   1.394       .  S
Cr749       O752   1.786       .  S
Cr750       O752   1.785       .  S
Cr751       O752   1.789       .  S
C753        C754   1.181   1_655  T
C755        C756   1.184       .  T
C757        C758   1.184       .  T
C759        C760   1.186   1_455  T
C761        C762   1.185       .  T
C763        C764   1.180   1_455  T
C765        C766   1.182       .  T
C767        C768   1.184       .  T
C769        C770   1.178       .  T
C771        C772   1.184       .  T
C773        C774   1.188   1_655  T
C775        C776   1.181       .  T
C777        C778   1.232       .  T
C779        C780   1.232       .  T
C781        C782   1.227       .  T
C783        C784   1.228       .  T
C785        C786   1.226       .  T
C787        C788   1.227       .  T
C789        C790   1.228       .  T
C791        C792   1.227       .  T
C793        C794   1.186   1_556  T
C795        C796   1.229       .  T
C797        C798   1.184       .  T
C799        C800   1.225       .  T
C801        C802   1.180       .  T
C803        C804   1.183   1_554  T
C805        C806   1.182       .  T
C807        C808   1.184   1_556  T
C809        C810   1.182       .  T
C811        C812   1.226       .  T
C813        C814   1.184       .  T
C815        C816   1.187       .  T
C817        C818   1.229       .  T
C819        C820   1.181   1_556  T
C821        C822   1.181       .  T
C823        C824   1.186       .  T
C825        C826   1.230       .  T
C827        C828   1.229       .  T
C829        C830   1.227       .  T
C831        C832   1.230       .  T
C833        C834   1.228       .  T
C835        C836   1.225       .  T
C837        C838   1.228       .  T
C839        C840   1.228       .  T
C841        C842   1.230       .  T
C843        C844   1.184   1_545  T
C845        C846   1.226       .  T
C847        C848   1.231       .  T
C849        C850   1.178       .  T
C851        C852   1.230       .  T
C853        C854   1.184   1_565  T
C855        C856   1.185       .  T
C857        C858   1.227       .  T
C859        C860   1.186       .  T
C861        C862   1.230       .  T
C863        C864   1.179       .  T
C865        C866   1.185   1_565  T
C867        C868   1.185       .  T
C869        C870   1.178       .  T
C871        C872   1.178       .  T
C873        C874   1.184       .  T
C875        C876   1.185   1_565  T
C877        C878   1.225       .  T
C879        C880   1.227       .  T
C881        C882   1.226       .  T
C883        C884   1.226       .  T
C885        C886   1.229       .  T
C887        C888   1.229       .  T
C889        C890   1.229       .  T
C891        C892   1.229       .  T
C893        C894   1.228       .  T
C895        C896   1.225       .  T
C897        C898   1.228       .  T
C899        C900   1.225       .  T
C901        C902   1.226       .  T
C903        C904   1.226       .  T
C905        C906   1.227       .  T
C907        C908   1.227       .  T
C909        C910   1.229       .  T
C911        C912   1.229       .  T
C913        C914   1.231       .  T
C915        C916   1.227       .  T
C917        C918   1.225       .  T
C919        C920   1.228       .  T
C921        C922   1.225       .  T
C923        C924   1.229       .  T
C925        C926   1.229       .  T
C927        C928   1.231       .  T
C929        C930   1.227       .  T
C931        C932   1.233       .  T
C933        C934   1.226       .  T
C935        C936   1.226       .  T
C937        C938   1.230       .  T
C939        C940   1.229       .  T
C941        C942   1.178   1_556  T
C943        C944   1.225       .  T
C945        C946   1.185   1_455  T
C947        C948   1.185   1_655  T
C949        C950   1.178   1_554  T
C951        C952   1.184   1_545  T
C953        C954   1.226       .  T
C955        C956   1.178   1_655  T
C957        C958   1.184   1_565  T
C959        C960   1.185   1_565  T
C961        C962   1.184   1_556  T
C963        C964   1.179   1_655  T
C965        C966   1.184   1_545  T
C967        C968   1.184   1_556  T
C969        C970   1.230       .  T
C971        C972   1.230       .  T
C973        C974   1.230       .  T
C975        C976   1.230       .  T
C977        C978   1.226       .  T
C979        C980   1.227       .  T
C981        C982   1.227       .  T
C983        C984   1.226       .  T
C985        C986   1.226       .  T
C987        C988   1.227       .  T
C989        C990   1.230       .  T
C991        C992   1.229       .  T
C993        C994   1.227       .  T
C995        C996   1.226       .  T
C997        C998   1.227       .  T
C999       C1000   1.228       .  T
C1001      C1002   1.230       .  T
C1003      C1004   1.229       .  T
C1005      C1006   1.229       .  T
C1007      C1008   1.229       .  T
C1009      C1010   1.226       .  T
C1011      C1012   1.227       .  T
C1013      C1014   1.228       .  T
C1015      C1016   1.227       .  T
C1017      C1018   1.231       .  T
C1019      C1020   1.229       .  T
C1021      C1022   1.227       .  T
C1023      C1024   1.229       .  T
C1025      C1026   1.226       .  T
C1027      C1028   1.227       .  T
C1029      C1030   1.226       .  T
C1031      C1032   1.226       .  T
C1033      C1034   1.225       .  T
C1035      C1036   1.226       .  T
C1037      C1038   1.230       .  T
C1039      C1040   1.229       .  T
