geometry optimzed in LAMMPS
_audit_creation_date              2020-12-01 
_audit_creation_method            'lammps2cif' 
_symmetry_space_group_name_H-M    'P1' 
_symmetry_Int_Tables_number       1 
_symmetry_cell_setting            triclinic 
loop_ 
_symmetry_equiv_pos_as_xyz 
  x,y,z 
_cell_length_a                    56.2268233 
_cell_length_b                    55.94828035100709 
_cell_length_c                    48.26919717130794 
_cell_angle_alpha                 89.43142775835784 
_cell_angle_beta                  90.53733750033892 
_cell_angle_gamma                 130.53958406918733 
loop_ 
_atom_site_label 
_atom_site_type_symbol 
_atom_site_fract_x 
_atom_site_fract_y 
_atom_site_fract_z 
_atom_site_charge 
C1          C  0.35453347  0.15608145  0.89210612     0.86300
C2          C  0.36891194  0.18901880  0.90269106    -0.54000
C3          C  0.35409060  0.19939320  0.89326081     0.09200
C4          C  0.32622993  0.17629195  0.87417334     0.20200
C5          C  0.31990646  0.13536640  0.90087080    -0.54700
C6          C  0.30508993  0.14596310  0.89156779     0.09300
C7          C  0.35410633  0.15864056  0.86042890    -0.54200
C8          C  0.33932469  0.16917304  0.85100105     0.09900
H9          H  0.38822052  0.20295738  0.91713658     0.14400
H10         H  0.31459590  0.18519309  0.86643043     0.00100
H11         H  0.30857555  0.11495717  0.91433176     0.14700
H12         H  0.36445149  0.15239911  0.84662954     0.14500
C13         C  0.34057301  0.14643220  0.60358413     0.86300
C14         C  0.30778450  0.13180825  0.59238906    -0.54000
C15         C  0.29653044  0.14549663  0.60220345     0.09200
C16         C  0.31883587  0.17278674  0.62212328     0.20200
C17         C  0.36105984  0.18167786  0.59650866    -0.54700
C18         C  0.34961808  0.19538630  0.60599963     0.09300
C19         C  0.33658425  0.14450585  0.63527670    -0.54200
C20         C  0.32580583  0.15881255  0.64501321     0.09900
H21         H  0.29350559  0.11180739  0.57874984     0.14400
H22         H  0.30946777  0.18387976  0.62980941     0.00100
H23         H  0.38192868  0.19421236  0.58381919     0.14700
H24         H  0.34279200  0.13373327  0.64891061     0.14500
C25         C  0.13544784  0.37464644  0.10498463     0.86300
C26         C  0.16984329  0.39246004  0.09710282    -0.54000
C27         C  0.18193281  0.37958727  0.10789732     0.09200
C28         C  0.15840361  0.34977193  0.12546723     0.20200
C29         C  0.11851971  0.34083965  0.09524632    -0.54700
C30         C  0.13051503  0.32789870  0.10574559     0.09300
C31         C  0.13489598  0.37283779  0.13658596    -0.54200
C32         C  0.14675089  0.35989047  0.14739334     0.09900
H33         H  0.18322338  0.41282676  0.08344966     0.14400
H34         H  0.16823535  0.33937388  0.13428447     0.00100
H35         H  0.09965310  0.32837797  0.08022607     0.14700
H36         H  0.12585278  0.38117142  0.14944209     0.14500
C37         C  0.12198428  0.37446431  0.39425504     0.86300
C38         C  0.10581587  0.34200516  0.40723108    -0.54000
C39         C  0.11710892  0.32793654  0.39850197     0.09200
C40         C  0.14382317  0.34767635  0.37738036     0.20200
C41         C  0.15719839  0.39345115  0.40062836    -0.54700
C42         C  0.16839484  0.37923389  0.39192810     0.09300
C43         C  0.11943498  0.36914589  0.36282617    -0.54200
C44         C  0.13076562  0.35514951  0.35394150     0.09900
H45         H  0.08665614  0.33092799  0.42182751     0.14400
H46         H  0.15313196  0.33634198  0.37022936     0.00100
H47         H  0.17223300  0.41541032  0.41177674     0.14700
H48         H  0.11032776  0.37675625  0.34869444     0.14500
Zr49       Zr  0.01649790  0.48737674  0.97733212     2.17500
O50         O  0.02353536  0.47118642  0.93363742    -0.51500
O51         O  0.03685261  0.46828269  0.00594427    -0.74700
O52         O  0.06838376  0.02126665  0.96247373    -0.81500
O53         O  0.43040648  0.41591882  0.97711824    -0.83300
O54         O  0.09133406  0.07066313  0.97678054    -0.78900
O55         O  0.47812584  0.43283106  0.96513846    -0.90500
O56         O  0.03313866  0.47757915  0.05062301    -0.76500
O57         O  0.04016498  0.02300539  0.01463252    -0.86000
O58         O  0.48291838  0.46488842  0.01809671    -0.85700
O59         O  0.02713913  0.03504118  0.96001893    -0.72400
O60         O  0.47011735  0.47834053  0.96433355    -0.84600
Zr61       Zr  0.46902981  0.03922659  0.01962480     2.26400
Zr62       Zr  0.05231370  0.07029061  0.99848284     2.06300
Zr63       Zr  0.43703769  0.45617967  0.00409671     2.10000
Zr64       Zr  0.50131701  0.99799254  0.05053651     1.78800
O65         O  0.38839945  0.42560126  0.97769817    -0.93400
O66         O  0.05113698  0.03496899  0.07964998    -0.43400
O67         O  0.46275021  0.49316294  0.04118232    -0.77800
O68         O  0.01669988  0.04801321  0.03667387    -0.96500
O69         O  0.50561289  0.06378814  0.98251235    -0.89800
O70         O  0.44368325  0.00356626  0.98181932    -0.92600
C71         C  0.04110806  0.46781766  0.03203501     1.01100
C72         C  0.44807396  0.41193524  0.96558861     1.14000
C73         C  0.09200381  0.05068392  0.96487115     1.04800
O74         O  0.09470946  0.09334164  0.03201025    -0.94800
O75         O  0.05904760  0.11326710  0.01993429    -0.90500
O76         O  0.50836556  0.09491532  0.03193138    -0.83700
C77         C  0.04112747  0.11708588  0.03113395     1.11500
O78         O  0.48397024  0.01255738  0.89924533    -0.96800
Zr79       Zr  0.48005453  0.02833946  0.94473495     1.88900
O80         O  0.45114822  0.06034150  0.99002957    -0.73400
O81         O  0.08375255  0.11640771  0.96827688    -0.52700
O82         O  0.01514368  0.07341336  0.91527992    -0.97400
O83         O  0.43158572  0.48969410  0.92260575    -0.54600
O84         O  0.46310683  0.05869341  0.94564237    -0.73900
C85         C  0.45239282  0.06595406  0.96397928     0.98400
O86         O  0.45826211  0.05130196  0.06384219    -0.62800
O87         O  0.41618745  0.41436693  0.03813107    -0.57600
O88         O  0.41306442  0.00332859  0.03043356    -0.94200
O89         O  0.39793574  0.45400122  0.02794295    -0.92700
O90         O  0.47707837  0.45649874  0.08363416    -0.93000
O91         O  0.48870540  0.00449909  0.09647894    -0.91800
C92         C  0.39564506  0.47385437  0.03720722     1.17200
H93         H  0.47804475  0.44546730  0.02351334     0.33200
H94         H  0.02613065  0.06235786  0.05214611     0.44000
H95         H  0.42671561  0.49685488  0.98276987     0.37600
H96         H  0.04126564  0.04327457  0.94446385     0.34000
H97         H  0.04961459  0.02112123  0.09383743     0.25800
H98         H  0.10523617  0.12948744  0.97599130     0.31800
H99         H  0.52490023  0.09242827  0.92692172     0.37700
H100        H  0.49188916  0.45882064  0.09705926     0.32100
H101        H  0.39324384  0.40177455  0.03740681     0.31000
H102        H  0.37455549  0.40489368  0.98716039     0.32700
H103        H  0.41852286  0.00210233  0.92670554     0.31700
H104        H  0.47423664  0.00858525  0.09302800     0.35700
H105        H  0.44524183  0.03116642  0.07422917     0.28400
H106        H  0.03957101  0.46925023  0.93739775     0.32600
H107        H  0.48237214  0.02481987  0.88562607     0.35500
H108        H  0.41942923  0.40047557  0.03006739     0.28100
H109        H  0.47835895  0.06434755  0.07411711     0.41000
H110        H  0.11183791  0.11470110  0.02474713     0.31000
H111        H  0.06830259  0.04096320  0.06739139     0.38600
H112        H  0.42251527  0.46833996  0.92880059     0.30500
H113        H  0.08494999  0.10862097  0.95047382     0.30600
H114        H  0.03031561  0.98885272  0.92052572     0.30800
Zr115      Zr  0.45430387  0.02944501  0.47782670     2.17500
O116        O  0.44088664  0.04014465  0.43384386    -0.51500
O117        O  0.43626036  0.04976176  0.50789749    -0.74700
O118        O  0.39853878  0.99076278  0.46766126    -0.81500
O119        O  0.04128693  0.10880982  0.47774180    -0.83300
O120        O  0.38291184  0.44883762  0.47639344    -0.78900
O121        O  0.48858728  0.08362190  0.46169298    -0.90500
O122        O  0.44700388  0.04587505  0.55224851    -0.76500
O123        O  0.43224084  0.99443155  0.51647176    -0.86000
O124        O  0.49213407  0.05657498  0.51400757    -0.85700
O125        O  0.44825044  0.48882449  0.46083978    -0.72400
O126        O  0.00340383  0.04464365  0.46244633    -0.84600
Zr127      Zr  0.00647149  0.48753171  0.51988973     2.26400
Zr128      Zr  0.42415136  0.45276608  0.49911499     2.06300
Zr129      Zr  0.03872284  0.06869866  0.50088452     2.10000
Zr130      Zr  0.47022044  0.02159373  0.55247826     1.78800
O131        O  0.08550097  0.09987484  0.47218492    -0.93400
O132        O  0.42008983  0.48803875  0.57713428    -0.41200
O133        O  0.01602202  0.03281126  0.53911677    -0.77800
O134        O  0.45963369  0.47640808  0.53761675    -0.96500
O135        O  0.46999956  0.46215665  0.48430001    -0.89800
O136        O  0.03051663  0.02344732  0.48518001    -0.92600
C137        C  0.43627233  0.05365654  0.53414365     1.01100
C138        C  0.02219698  0.11130412  0.46655789     1.14000
C139        C  0.38031942  0.46830771  0.46604004     1.04800
O140        O  0.38070268  0.42561729  0.53157336    -0.94800
O141        O  0.42042210  0.41142878  0.52179113    -0.90500
O142        O  0.46934163  0.43102511  0.53433313    -0.83700
C143        C  0.43954787  0.40875189  0.53267054     1.11500
O144        O  0.47942192  0.00197352  0.40144539    -0.96800
Zr145      Zr  0.49485347  0.49880894  0.44712553     1.88900
O146        O  0.02351175  0.46707598  0.48948468    -0.73400
O147        O  0.39813616  0.40939881  0.46638913    -0.52700
O148        O  0.45996652  0.45234684  0.41827087    -0.97400
O149        O  0.03985609  0.03411639  0.41847023    -0.54600
O150        O  0.01327690  0.47195668  0.44520836    -0.73900
C151        C  0.02325681  0.46324758  0.46328527     0.98400
O152        O  0.02117384  0.47936626  0.56456366    -0.62800
O153        O  0.06212842  0.11081103  0.53461562    -0.57600
O154        O  0.06137537  0.02534461  0.53595603    -0.94200
O155        O  0.08035417  0.07397995  0.52302371    -0.92700
O156        O  0.00503130  0.06643970  0.58433469    -0.93000
O157        O  0.48131033  0.01289372  0.59860278    -0.91800
C158        C  0.08338232  0.05533119  0.53436591     1.17200
H159        H  0.99788722  0.07802820  0.52178278     0.33200
H160        H  0.45071340  0.46195205  0.55314295     0.44000
H161        H  0.05018642  0.02908174  0.48010848     0.37600
H162        H  0.43413489  0.48018898  0.44514052     0.34000
H163        H  0.42672468  0.00141679  0.59616937     0.25800
H164        H  0.37608565  0.39436407  0.47258805     0.31800
H165        H  0.45301091  0.43447169  0.43040396     0.37700
H166        H  0.49506874  0.07121851  0.59101386     0.32100
H167        H  0.06550620  0.10306875  0.55144400     0.31000
H168        H  0.09737879  0.12184960  0.47830996     0.32700
H169        H  0.05577151  0.03310386  0.42552507     0.31700
H170        H  0.48659591  0.50194050  0.59562691     0.35700
H171        H  0.03092509  0.99510268  0.57771928     0.28400
H172        H  0.42457060  0.04141240  0.43826551     0.32600
H173        H  0.49486524  0.50463601  0.38809266     0.35500
H174        H  0.08343329  0.12794797  0.52749969     0.28100
H175        H  0.49490135  0.46422554  0.57810576     0.41000
H176        H  0.36522840  0.40402307  0.52418495     0.31000
H177        H  0.41321383  0.46676847  0.57506958     0.38600
H178        H  0.04803471  0.05536660  0.42363547     0.30500
H179        H  0.39746116  0.41806346  0.44870359     0.30600
H180        H  0.43000675  0.02072311  0.42278229     0.30800
C181        C  0.25650078  0.43374787  0.40222439    -0.27800
C182        C  0.25961573  0.41472710  0.41817078     0.01800
C183        C  0.23263472  0.38330726  0.42372193     0.29900
C184        C  0.20326006  0.37186417  0.41418355    -0.19600
C185        C  0.20016163  0.39125712  0.39913475    -0.29000
C186        C  0.22711476  0.42219865  0.39263793     0.43900
C187        C  0.29080302  0.42849341  0.42996713     0.05100
O188        O  0.23440683  0.36429297  0.44005621    -0.57500
H189        H  0.18263950  0.34806569  0.41950062     0.18000
O190        O  0.22496022  0.44135705  0.37705311    -0.64200
H191        H  0.27695699  0.45776430  0.39733551     0.16500
C192        C  0.30345409  0.41364195  0.42690378     0.28700
C193        C  0.33201689  0.42633077  0.43954825    -0.25100
C194        C  0.34960165  0.45502702  0.45383000    -0.24400
C195        C  0.33785136  0.47084324  0.45552121     0.40200
C196        C  0.30847883  0.45728573  0.44413939    -0.26900
O197        O  0.28874364  0.38736178  0.41077950    -0.58800
H198        H  0.34106499  0.41427726  0.43724563     0.15800
O199        O  0.35486355  0.49958011  0.46816791    -0.60200
H200        H  0.29947302  0.46938038  0.44638355     0.14300
H201        H  0.22763439  0.43793816  0.35760468     0.46100
H202        H  0.29242360  0.39504094  0.39137934     0.41500
H203        H  0.34795297  0.49488057  0.48775343     0.44900
H204        H  0.22944240  0.34755704  0.42760526     0.36400
C205        C  0.06026210  0.38301373  0.40643295    -0.27800
C206        C  0.07673971  0.41033931  0.42235019     0.01800
C207        C  0.10833482  0.42676223  0.42871397     0.29900
C208        C  0.12315105  0.41576488  0.41935596    -0.19600
C209        C  0.10676962  0.38791607  0.40367340    -0.29000
C210        C  0.07481819  0.37156642  0.39740042     0.43900
C211        C  0.06099531  0.42175628  0.43247975     0.05100
O212        O  0.12494063  0.45357602  0.44437975    -0.57500
H213        H  0.14733464  0.42929083  0.42506376     0.18000
O214        O  0.05763122  0.34440218  0.38216550    -0.64200
H215        H  0.03586054  0.37020836  0.40138890     0.16500
C216        C  0.05229924  0.43453426  0.41411369     0.28700
C217        C  0.03964768  0.44747974  0.42437560    -0.25100
C218        C  0.03552035  0.44804504  0.45305145    -0.24400
C219        C  0.04386903  0.43458861  0.47136037     0.40200
C220        C  0.05631752  0.42150435  0.46095525    -0.26900
O221        O  0.05774450  0.43607333  0.38624472    -0.58800
H222        H  0.03374148  0.45774509  0.40976283     0.15800
O223        O  0.04001261  0.43397415  0.49944658    -0.60200
H224        H  0.06289068  0.41157995  0.47523925     0.14300
H225        H  0.04448343  0.32708989  0.39579668     0.46100
H226        H  0.04045257  0.92092914  0.38258813     0.41500
H227        H  0.54557559  0.43346023  0.51076518     0.44900
H228        H  0.13211512  0.47073918  0.43111844     0.36400
C229        C  0.03287283  0.17771870  0.42826214    -0.27800
C230        C  0.06361012  0.20362112  0.43588667     0.01800
C231        C  0.08072214  0.19905020  0.45292962     0.29900
C232        C  0.06690182  0.16896407  0.46259802    -0.19600
C233        C  0.03586321  0.14277649  0.45544739    -0.29000
C234        C  0.01886776  0.14744637  0.43795851     0.43900
C235        C  0.07770621  0.23547692  0.42621435     0.05100
O236        O  0.11108185  0.22388339  0.46017634    -0.57500
H237        H  0.08066788  0.16628107  0.47589835     0.18000
O238        O  0.98896854  0.12263475  0.42957716    -0.64200
H239        H  0.01959492  0.18105026  0.41495567     0.16500
C240        C  0.08361469  0.24343250  0.39794488     0.28700
C241        C  0.09732192  0.27392232  0.38925533    -0.25100
C242        C  0.10445141  0.29647232  0.40845518    -0.24400
C243        C  0.09870834  0.28847402  0.43684324     0.40200
C244        C  0.08569054  0.25821639  0.44553578    -0.26900
O245        O  0.07679972  0.22175515  0.37882126    -0.58800
H246        H  0.10166564  0.27972023  0.36738937     0.15800
O247        O  0.10687182  0.31042519  0.45630577    -0.60200
H248        H  0.08153951  0.25237380  0.46741023     0.14300
H249        H  0.97515895  0.12353334  0.44127403     0.46100
H250        H  0.05643065  0.21328055  0.37059638     0.41500
H251        H  0.08681731  0.30396953  0.46307218     0.44900
H252        H  0.12383560  0.22712838  0.44415000     0.36400
C253        C  0.16410355  0.38145214  0.22310948    -0.27800
C254        C  0.14400397  0.35176385  0.23591805     0.01800
C255        C  0.12662820  0.32456771  0.21931784     0.29900
C256        C  0.12909489  0.32734756  0.19035685    -0.19600
C257        C  0.14842693  0.35706903  0.17766745    -0.29000
C258        C  0.16627803  0.38421695  0.19423502     0.43900
C259        C  0.14009922  0.34972456  0.26645099     0.05100
O260        O  0.10650294  0.29523876  0.23117464    -0.57500
H261        H  0.11481144  0.30633580  0.17778597     0.18000
O262        O  0.18487625  0.41358790  0.18233008    -0.64200
H263        H  0.17727352  0.40259266  0.23552974     0.16500
C264        C  0.16595014  0.36369071  0.28437267     0.28700
C265        C  0.16217904  0.36369893  0.31304678    -0.25100
C266        C  0.13303180  0.35082699  0.32414021    -0.24400
C267        C  0.10700588  0.33623247  0.30630587     0.40200
C268        C  0.11061533  0.33557656  0.27771767    -0.26900
O269        O  0.19493566  0.37726286  0.27399414    -0.58800
H270        H  0.18240279  0.37507863  0.32651933     0.15800
O271        O  0.07812072  0.32322835  0.31652764    -0.60200
H272        H  0.09055956  0.32496536  0.26418764     0.14300
H273        H  0.20425476  0.41779610  0.17683109     0.46100
H274        H  0.20723251  0.40027448  0.27540923     0.41500
H275        H  0.06952418  0.30248515  0.32420738     0.44900
H276        H  0.11962054  0.28972507  0.23592709     0.36400
C277        C  0.10288927  0.25972634  0.05948639    -0.27800
C278        C  0.09651860  0.23749196  0.07886814     0.01800
C279        C  0.10244548  0.24531102  0.10715899     0.29900
C280        C  0.11420019  0.27514322  0.11572255    -0.19600
C281        C  0.11950732  0.29702712  0.09634663    -0.29000
C282        C  0.11413023  0.28918704  0.06794481     0.43900
C283        C  0.08324627  0.20620700  0.06876072     0.05100
O284        O  0.09774806  0.22435726  0.12633791    -0.57500
H285        H  0.11857492  0.28093461  0.13753542     0.18000
O286        O  0.11958389  0.31002804  0.04818422    -0.64200
H287        H  0.09860220  0.25397132  0.03763679     0.16500
C288        C  0.05252278  0.17934770  0.07547395     0.28700
C289        C  0.03924130  0.15052317  0.06319964    -0.25100
C290        C  0.05598297  0.14807816  0.04365988    -0.24400
C291        C  0.08682670  0.17526036  0.03687877     0.40200
C292        C  0.10012661  0.20393822  0.04944542    -0.26900
O293        O  0.03492146  0.18128868  0.09321925    -0.58800
H294        H  0.51470850  0.13001086  0.07024547     0.15800
O295        O  0.10365548  0.17452683  0.01703501    -0.60200
H296        H  0.12352980  0.22473815  0.04360790     0.14300
H297        H  0.14208860  0.32333699  0.04361680     0.46100
H298        H  0.52621171  0.18868251  0.08494832     0.41500
H299        H  0.11843182  0.17373623  0.02744001     0.44900
H300        H  0.07763309  0.21512796  0.13540881     0.36400
C301        C  0.32242018  0.46113579  0.05510845    -0.27800
C302        C  0.30621056  0.43403659  0.07193684     0.01800
C303        C  0.31971113  0.42022013  0.07698928     0.29900
C304        C  0.34863513  0.43331212  0.06533257    -0.19600
C305        C  0.36511155  0.46075589  0.04909118    -0.29000
C306        C  0.35168168  0.47457102  0.04385144     0.43900
C307        C  0.27486186  0.41976470  0.08327849     0.05100
O308        O  0.30499070  0.39406022  0.09355216    -0.57500
H309        H  0.35853137  0.42225863  0.06946113     0.18000
O310        O  0.36653426  0.50067188  0.02716899    -0.64200
H311        H  0.31210563  0.47161142  0.05020050     0.16500
C312        C  0.26962322  0.43816437  0.09690752     0.28700
C313        C  0.23944196  0.42447172  0.10578442    -0.25100
C314        C  0.21409172  0.39246311  0.10134542    -0.24400
C315        C  0.21941874  0.37380818  0.08859083     0.40200
C316        C  0.24956728  0.38748362  0.07965021    -0.26900
O317        O  0.29397266  0.46938457  0.10214643    -0.58800
H318        H  0.23571125  0.43901778  0.11585967     0.15800
O319        O  0.19511520  0.34251273  0.08367540    -0.60200
H320        H  0.25291778  0.37295533  0.06892474     0.14300
H321        H  0.35164633  0.98692941  0.99732426     0.46100
H322        H  0.29098042  0.48109128  0.08914857     0.41500
H323        H  0.19080118  0.34107965  0.06352921     0.44900
H324        H  0.31281867  0.40228037  0.11254331     0.36400
C325        C  0.06979708  0.42228436  0.03659765    -0.27800
C326        C  0.08249517  0.42991176  0.06347859     0.01800
C327        C  0.08244058  0.45078539  0.07941130     0.29900
C328        C  0.06959593  0.46342537  0.06855054    -0.19600
C329        C  0.05617771  0.45530295  0.04188273    -0.29000
C330        C  0.05655525  0.43463039  0.02579208     0.43900
C331        C  0.09548185  0.41574802  0.07471914     0.05100
O332        O  0.09442004  0.45861294  0.10581824    -0.57500
H333        H  0.06988642  0.47945117  0.08129268     0.18000
O334        O  0.04362852  0.42584274  0.99974017    -0.64200
H335        H  0.07001027  0.40652619  0.02396653     0.16500
C336        C  0.07745925  0.38299634  0.07493446     0.28700
C337        C  0.09030990  0.37004014  0.08498200    -0.25100
C338        C  0.12166863  0.38924989  0.09423859    -0.24400
C339        C  0.13878215  0.42203466  0.09587021     0.40200
C340        C  0.12593307  0.43500114  0.08562719    -0.26900
O341        O  0.04667238  0.36335373  0.06668545    -0.58800
H342        H  0.07487234  0.34473035  0.08615692     0.15800
O343        O  0.16813444  0.44173776  0.10743048    -0.60200
H344        H  0.13990108  0.46027619  0.08615719     0.14300
H345        H  0.02099395  0.40806338  0.00266547     0.46100
H346        H  0.04598081  0.35408404  0.04896845     0.41500
H347        H  0.16481626  0.44371203  0.12712783     0.44900
H348        H  0.07667821  0.44242963  0.11793886     0.36400
C349        C  0.40504658  0.08183824  0.58188519    -0.27800
C350        C  0.39817455  0.09581373  0.56303142     0.01800
C351        C  0.40439399  0.09645360  0.53468890     0.29900
C352        C  0.41710608  0.08306151  0.52561850    -0.19600
C353        C  0.42330283  0.06826391  0.54437194    -0.29000
C354        C  0.41700399  0.06777443  0.57284628     0.43900
C355        C  0.38343345  0.10853104  0.57315395     0.05100
O356        O  0.39893779  0.11094296  0.51582650    -0.57500
H357        H  0.42201201  0.08423652  0.50376535     0.18000
O358        O  0.42184701  0.05314291  0.59213287    -0.64200
H359        H  0.40017898  0.08094179  0.60371825     0.16500
C360        C  0.35439501  0.09724163  0.56264472     0.28700
C361        C  0.34075682  0.10940589  0.57218930    -0.25100
C362        C  0.35503012  0.13246616  0.59314561    -0.24400
C363        C  0.38411603  0.14339566  0.60390248     0.40200
C364        C  0.39786491  0.13130484  0.59408758    -0.26900
O365        O  0.33876741  0.07382433  0.54320361    -0.58800
H366        H  0.31903795  0.10034840  0.56253005     0.15800
O367        O  0.39920962  0.16575286  0.62430126    -0.60200
H368        H  0.42009087  0.14001100  0.60268080     0.14300
H369        H  0.40178065  0.03114566  0.59301052     0.46100
H370        H  0.32407681  0.05402011  0.55390396     0.41500
H371        H  0.41516298  0.18595902  0.61455691     0.44900
H372        H  0.38115810  0.09377910  0.50428746     0.36400
C373        C  0.42742627  0.33572323  0.55191263    -0.27800
C374        C  0.40023434  0.31903466  0.56814382     0.01800
C375        C  0.38620501  0.33232603  0.57278504     0.29900
C376        C  0.39896590  0.36134142  0.56065356    -0.19600
C377        C  0.42615233  0.37789728  0.54453151    -0.29000
C378        C  0.44044105  0.36493636  0.54030059     0.43900
C379        C  0.38678738  0.28768001  0.57956735     0.05100
O380        O  0.36127128  0.31809103  0.59047339    -0.57500
H381        H  0.38806068  0.37135352  0.56450091     0.18000
O382        O  0.46680382  0.38035390  0.52437806    -0.64200
H383        H  0.43843109  0.32585463  0.54789154     0.16500
C384        C  0.35496623  0.26110045  0.57558544     0.28700
C385        C  0.34323538  0.23158686  0.58524007    -0.25100
C386        C  0.36293019  0.22758215  0.59798503    -0.24400
C387        C  0.39481308  0.25389633  0.60173861     0.40200
C388        C  0.40642301  0.28373550  0.59290271    -0.26900
O389        O  0.33531909  0.26336049  0.56126901    -0.58800
H390        H  0.31879449  0.21142474  0.58169654     0.15800
O391        O  0.41457910  0.25080290  0.61454359    -0.60200
H392        H  0.43095323  0.30381444  0.59615562     0.14300
H393        H  0.45905394  0.37279794  0.50522729     0.46100
H394        H  0.33784295  0.26073331  0.54151398     0.41500
H395        H  0.42634819  0.25085417  0.59933279     0.44900
H396        H  0.34382664  0.31331826  0.57915065     0.36400
C397        C  0.16952549  0.11386877  0.55420713    -0.27800
C398        C  0.17286183  0.09470545  0.56923557     0.01800
C399        C  0.14657373  0.06295626  0.57388545     0.29900
C400        C  0.11753806  0.05053146  0.56268461    -0.19600
C401        C  0.11426934  0.06939406  0.54662196    -0.29000
C402        C  0.14075607  0.10154850  0.54268659     0.43900
C403        C  0.20447688  0.10783653  0.57796498     0.05100
O404        O  0.14913748  0.04377366  0.58888395    -0.57500
H405        H  0.09765704  0.02593929  0.56636251     0.18000
O406        O  0.13916080  0.12120373  0.52727315    -0.64200
H407        H  0.18964037  0.13844517  0.55076796     0.16500
C408        C  0.22754886  0.11861054  0.55789924     0.28700
C409        C  0.25755508  0.13121443  0.56612050    -0.25100
C410        C  0.26526276  0.13412816  0.59428713    -0.24400
C411        C  0.24246410  0.12420683  0.61442434     0.40200
C412        C  0.21210188  0.11078187  0.60617695    -0.26900
O413        O  0.22064167  0.11604488  0.53017701    -0.58800
H414        H  0.27492337  0.13879633  0.55045338     0.15800
O415        O  0.24944197  0.12705175  0.64213185    -0.60200
H416        H  0.19457481  0.10293589  0.62175208     0.14300
H417        H  0.14391476  0.11947535  0.50802181     0.46100
H418        H  0.22859437  0.13718138  0.52441822     0.41500
H419        H  0.24857413  0.10916644  0.64664524     0.44900
H420        H  0.15288175  0.03361802  0.57497698     0.36400
C421        C  0.33943102  0.19598616  0.71511085    -0.27800
C422        C  0.32542842  0.17002043  0.73285623     0.01800
C423        C  0.30930649  0.13993552  0.72147021     0.29900
C424        C  0.30860055  0.13632927  0.69274268    -0.19600
C425        C  0.32350290  0.16244255  0.67499241    -0.29000
C426        C  0.33816869  0.19229411  0.68630832     0.43900
C427        C  0.32992615  0.17448732  0.76319803     0.05100
O428        O  0.29511228  0.11408247  0.73835713    -0.57500
H429        H  0.29695234  0.11318111  0.68432194     0.18000
O430        O  0.35342973  0.21836838  0.66955764    -0.64200
H431        H  0.35200179  0.21926158  0.72364842     0.16500
C432        C  0.35954224  0.18949550  0.77505854     0.28700
C433        C  0.36244968  0.18816595  0.80374641    -0.25100
C434        C  0.33628194  0.17312887  0.82107386    -0.24400
C435        C  0.30718930  0.16069151  0.80935881     0.40200
C436        C  0.30407485  0.16094506  0.78054514    -0.26900
O437        O  0.38542377  0.20387864  0.75862746    -0.58800
H438        H  0.38514743  0.19856111  0.81246907     0.15800
O439        O  0.28137062  0.14714965  0.82567279    -0.60200
H440        H  0.28126194  0.14978166  0.77163327     0.14300
H441        H  0.33912742  0.22293378  0.66792445     0.46100
H442        H  0.39504611  0.22628882  0.75778934     0.41500
H443        H  0.27372922  0.12587481  0.83030242     0.44900
H444        H  0.31119585  0.11212361  0.74182289     0.36400
C445        C  0.44074042  0.11532352  0.92187568    -0.27800
C446        C  0.41256343  0.10549595  0.93273729     0.01800
C447        C  0.39837726  0.08387825  0.95491462     0.29900
C448        C  0.41204038  0.07183109  0.96551497    -0.19600
C449        C  0.43982278  0.08097926  0.95412467    -0.29000
C450        C  0.45432854  0.10317631  0.93232496     0.43900
C451        C  0.39869187  0.11873342  0.92140685     0.05100
O452        O  0.37119292  0.07444589  0.96635927    -0.57500
H453        H  0.40053363  0.05478541  0.98226162     0.18000
O454        O  0.48240421  0.11401394  0.92181365    -0.64200
H455        H  0.45215544  0.13237858  0.90512805     0.16500
C456        C  0.41446154  0.15088366  0.92399183     0.28700
C457        C  0.40058932  0.16296111  0.91427629    -0.25100
C458        C  0.37064237  0.14336758  0.90170673    -0.24400
C459        C  0.35619627  0.11151213  0.89718194     0.40200
C460        C  0.36978423  0.09930310  0.90764033    -0.26900
O461        O  0.44365210  0.17080879  0.93588776    -0.58800
H462        H  0.41417477  0.18794331  0.91626059     0.15800
O463        O  0.32848946  0.09193801  0.88285766    -0.60200
H464        H  0.35788530  0.07463658  0.90469656     0.14300
H465        H  0.47713471  0.10256529  0.90416289     0.46100
H466        H  0.43998872  0.17253375  0.95554393     0.41500
H467        H  0.33438793  0.09107146  0.86383094     0.44900
H468        H  0.37795798  0.09019592  0.98087331     0.36400
C469        C  0.43241541  0.34642316  0.92183532    -0.27800
C470        C  0.40089975  0.32133435  0.92793960     0.01800
C471        C  0.38454685  0.32654466  0.94498121     0.29900
C472        C  0.40019362  0.35603083  0.95697865    -0.19600
C473        C  0.43222539  0.38109288  0.95190697    -0.29000
C474        C  0.44801826  0.37618784  0.93338005     0.43900
C475        C  0.38613020  0.28927736  0.91851663     0.05100
O476        O  0.35336101  0.30278370  0.95045462    -0.57500
H477        H  0.38713511  0.35908195  0.97057933     0.18000
O478        O  0.47867873  0.40013648  0.92642895    -0.64200
H479        H  0.44520729  0.34272883  0.90857725     0.16500
C480        C  0.38349859  0.28210137  0.89018547     0.28700
C481        C  0.37145759  0.25206436  0.88212958    -0.25100
C482        C  0.36324822  0.22951887  0.90209920    -0.24400
C483        C  0.36508778  0.23637511  0.93039555     0.40200
C484        C  0.37615572  0.26600308  0.93841545    -0.26900
O485        O  0.39255309  0.30425831  0.87031903    -0.58800
H486        H  0.36977524  0.24679860  0.86029487     0.15800
O487        O  0.35552790  0.21403096  0.95026739    -0.60200
H488        H  0.37792478  0.27118226  0.96028172     0.14300
H489        H  0.47786572  0.40987700  0.90957153     0.46100
H490        H  0.41294636  0.31166043  0.86343386     0.41500
H491        H  0.37501937  0.21947296  0.95768393     0.44900
H492        H  0.34224717  0.30046548  0.93324535     0.36400
C493        C  0.15349444  0.06451472  0.91732823    -0.27800
C494        C  0.18120952  0.08904955  0.93116849     0.01800
C495        C  0.17910021  0.10010166  0.95636822     0.29900
C496        C  0.14990731  0.08734653  0.96689190    -0.19600
C497        C  0.12224331  0.06277718  0.95321407    -0.29000
C498        C  0.12413489  0.05106516  0.92834988     0.43900
C499        C  0.21222859  0.10323594  0.91927561     0.05100
O500        O  0.20548055  0.12328203  0.97104157    -0.57500
H501        H  0.14892049  0.09647495  0.98614381     0.18000
O502        O  0.09758383  0.02782520  0.91387424    -0.64200
H503        H  0.15458596  0.05603256  0.89770880     0.16500
C504        C  0.21922536  0.08443969  0.91050646     0.28700
C505        C  0.24913023  0.09857176  0.90052097    -0.25100
C506        C  0.27283363  0.13145390  0.90004693    -0.24400
C507        C  0.26587396  0.15020739  0.90903352     0.40200
C508        C  0.23568452  0.13608397  0.91794965    -0.26900
O509        O  0.19750252  0.05229442  0.91276127    -0.58800
H510        H  0.25405888  0.08376345  0.89380667     0.15800
O511        O  0.28895184  0.18219484  0.91138630    -0.60200
H512        H  0.23085570  0.15099974  0.92456983     0.14300
H513        H  0.09499017  0.00865788  0.91668348     0.46100
H514        H  0.19805355  0.04765369  0.93253500     0.41500
H515        H  0.28401082  0.19135562  0.89720006     0.44900
H516        H  0.20746693  0.11210684  0.98568528     0.36400
C517        C  0.35507142  0.65385449  0.89614513     0.86300
C518        C  0.37016660  0.68763580  0.90469774    -0.54000
C519        C  0.35591393  0.69804903  0.89381795     0.09200
C520        C  0.32781832  0.67407051  0.87510169     0.20200
C521        C  0.32056804  0.63414053  0.90443891    -0.54700
C522        C  0.30637247  0.64476914  0.89363892     0.09300
C523        C  0.35489167  0.65473404  0.86425612    -0.54200
C524        C  0.34027741  0.66487979  0.85320325     0.09900
H525        H  0.38980744  0.70256927  0.91857992     0.14400
H526        H  0.31639651  0.68274491  0.86611788     0.00100
H527        H  0.30881104  0.61428670  0.91865249     0.14700
H528        H  0.36467038  0.64709033  0.85153399     0.14500
C529        C  0.33886689  0.64459639  0.60333762     0.86300
C530        C  0.30646455  0.63069204  0.59188142    -0.54000
C531        C  0.29490519  0.64363874  0.60276847     0.09200
C532        C  0.31649128  0.66946646  0.62412317     0.20200
C533        C  0.35943167  0.68017483  0.59816766    -0.54700
C534        C  0.34773340  0.69316226  0.60881565     0.09300
C535        C  0.33406734  0.64044490  0.63487235    -0.54200
C536        C  0.32285490  0.65383015  0.64586170     0.09900
H537        H  0.29287356  0.61213344  0.57678332     0.14400
H538        H  0.30687168  0.67998610  0.63270283     0.00100
H539        H  0.38065942  0.69361445  0.58587185     0.14700
H540        H  0.34011223  0.62891305  0.64755834     0.14500
C541        C  0.12919569  0.87121993  0.10474606     0.86300
C542        C  0.16358102  0.89055985  0.09586144    -0.54000
C543        C  0.17737654  0.87890867  0.10526751     0.09200
C544        C  0.15533683  0.84877418  0.12298804     0.20200
C545        C  0.11331839  0.83777726  0.09448093    -0.54700
C546        C  0.12705791  0.82616809  0.10384466     0.09300
C547        C  0.12965111  0.86900822  0.13629970    -0.54200
C548        C  0.14324969  0.85743890  0.14594998     0.09900
H549        H  0.17555645  0.91099834  0.08233935     0.14400
H550        H  0.16638231  0.83931683  0.13098149     0.00100
H551        H  0.09381146  0.82442689  0.08017432     0.14700
H552        H  0.12001049  0.87611129  0.14999964     0.14500
C553        C  0.12488856  0.87610728  0.39334180     0.86300
C554        C  0.10564331  0.84214238  0.40399651    -0.54000
C555        C  0.11575961  0.82699631  0.39499210     0.09200
C556        C  0.14417896  0.84709944  0.37567589     0.20200
C557        C  0.15896921  0.89203637  0.40164587    -0.54700
C558        C  0.16869395  0.87660336  0.39258198     0.09300
C559        C  0.12453064  0.87345633  0.36161144    -0.54200
C560        C  0.13439731  0.85814573  0.35234745     0.09900
H561        H  0.08561289  0.83110204  0.41751830     0.14400
H562        H  0.15261406  0.83502892  0.36824786     0.00100
H563        H  0.17436952  0.91293065  0.41412810     0.14700
H564        H  0.11723017  0.88300767  0.34767100     0.14500
Zr565      Zr  0.01406345  0.98717878  0.97705002     2.17500
O566        O  0.02074249  0.97075968  0.93330008    -0.51500
O567        O  0.03348044  0.96821028  0.00749737    -0.74700
O568        O  0.07117150  0.52338187  0.96313020    -0.81500
O569        O  0.42504205  0.91467983  0.97229567    -0.83300
O570        O  0.09385296  0.57197291  0.97969267    -0.78900
O571        O  0.47330982  0.93294002  0.96058625    -0.90500
O572        O  0.02736323  0.97613099  0.05186152    -0.76500
O573        O  0.04295481  0.52363850  0.01452565    -0.86000
O574        O  0.47617654  0.96254545  0.01279644    -0.85700
O575        O  0.02746353  0.53419242  0.96069804    -0.72400
O576        O  0.46736180  0.98007489  0.95915024    -0.84600
Zr577      Zr  0.47300493  0.53945066  0.02360158     2.26400
Zr578      Zr  0.05282523  0.56996406  0.99883422     2.06300
Zr579      Zr  0.43200458  0.95616711  0.99741290     2.10000
Zr580      Zr  0.50968210  0.50291446  0.05405535     1.78800
O581        O  0.38499479  0.92684063  0.96879839    -0.93400
O582        O  0.05578409  0.53380405  0.08006783    -0.43400
O583        O  0.45648179  0.99136557  0.03583460    -0.77800
O584        O  0.01884006  0.54687607  0.03821421    -0.96500
O585        O  0.50718328  0.56254555  0.98468120    -0.89800
O586        O  0.44630005  0.50186502  0.98728851    -0.92600
C587        C  0.03627593  0.96680950  0.03377769     1.01100
C588        C  0.44339126  0.91135216  0.96118673     1.14000
C589        C  0.09483349  0.55260544  0.96694551     1.04800
O590        O  0.10015022  0.60244051  0.02701259    -0.94800
O591        O  0.05864026  0.61159534  0.02231709    -0.90500
O592        O  0.51121723  0.59558124  0.03353400    -0.83700
C593        C  0.04017074  0.61482008  0.03329379     1.11500
O594        O  0.48581083  0.51090186  0.90290295    -0.96800
Zr595      Zr  0.48038798  0.52493954  0.94858025     1.88900
O596        O  0.45292379  0.55856178  0.99433911    -0.73400
O597        O  0.07498375  0.61004361  0.96279227    -0.52700
O598        O  0.01747455  0.57401206  0.92230554    -0.97400
O599        O  0.43135270  0.99777992  0.91824346    -0.54600
O600        O  0.45903584  0.55109990  0.94980532    -0.73900
C601        C  0.45056181  0.56069226  0.96808064     0.98400
O602        O  0.46582274  0.55269162  0.06908314    -0.62800
O603        O  0.40856326  0.91300803  0.03045789    -0.57600
O604        O  0.41790362  0.50389685  0.03698661    -0.94200
O605        O  0.39274392  0.95331376  0.02143087    -0.92700
O606        O  0.46510529  0.94843151  0.07563784    -0.93000
O607        O  0.50343975  0.51657195  0.09958622    -0.91800
C608        C  0.39062500  0.97330094  0.03052106     1.17200
H609        H  0.47037196  0.94254032  0.01749205     0.33200
H610        H  0.02848790  0.56126662  0.05366703     0.44000
H611        H  0.42468012  0.99949625  0.97673632     0.37600
H612        H  0.04117362  0.54257222  0.94482100     0.34000
H613        H  0.05479783  0.51950045  0.09324374     0.25800
H614        H  0.09628736  0.62779340  0.96956756     0.31800
H615        H  0.50784455  0.58210782  0.91862891     0.37700
H616        H  0.47830116  0.94423775  0.08381700     0.32100
H617        H  0.40384512  0.91956328  0.04701811     0.31000
H618        H  0.38220631  0.94210729  0.96389392     0.32700
H619        H  0.41752022  0.49273861  0.93044561     0.31700
H620        H  0.48871299  0.52038340  0.09653443     0.35700
H621        H  0.45273764  0.53263343  0.07959199     0.28400
H622        H  0.03714882  0.96927174  0.93664880     0.32600
H623        H  0.48673512  0.49406153  0.90650283     0.35500
H624        H  0.38782244  0.89565090  0.02241360     0.28100
H625        H  0.48651396  0.56509160  0.07832146     0.41000
H626        H  0.09486296  0.59002313  0.04413350     0.31000
H627        H  0.07274966  0.54056825  0.06713831     0.38600
H628        H  0.42050467  0.97564445  0.92329118     0.30500
H629        H  0.07847130  0.60168094  0.94683989     0.30600
H630        H  0.03380662  0.48958011  0.92111248     0.30800
Zr631      Zr  0.45826349  0.53512350  0.47712909     2.17500
O632        O  0.44751173  0.54817125  0.43299744    -0.51500
O633        O  0.43978932  0.55495354  0.50665308    -0.74700
O634        O  0.40266206  0.49828847  0.46506621    -0.81500
O635        O  0.03981358  0.60796196  0.47276352    -0.83300
O636        O  0.38087678  0.94243521  0.48064098    -0.78900
O637        O  0.49582834  0.59020008  0.46282695    -0.90500
O638        O  0.44882235  0.54957822  0.55113904    -0.76500
O639        O  0.43319745  0.49855383  0.51459540    -0.86000
O640        O  0.49423159  0.55967268  0.51496398    -0.85700
O641        O  0.44561087  0.98352466  0.46224502    -0.72400
O642        O  0.00092173  0.54421410  0.46057218    -0.84600
Zr643      Zr  0.00640754  0.98683142  0.52277919     2.26400
Zr644      Zr  0.42445305  0.94906599  0.50160440     2.06300
Zr645      Zr  0.03755070  0.56882668  0.49808722     2.10000
Zr646      Zr  0.46938809  0.52286978  0.55206487     1.78800
O647        O  0.08253077  0.59962611  0.46730257    -0.93400
O648        O  0.42392314  0.98749213  0.58152477    -0.41200
O649        O  0.01598799  0.53326981  0.53668945    -0.77800
O650        O  0.46114321  0.97516510  0.53921473    -0.96500
O651        O  0.47045716  0.95952521  0.48571789    -0.89800
O652        O  0.02908533  0.52365308  0.48197391    -0.92600
C653        C  0.43908383  0.55819641  0.53285446     1.01100
C654        C  0.02005478  0.60976195  0.46195393     1.14000
C655        C  0.37694886  0.96079132  0.46993425     1.04800
O656        O  0.37897242  0.91669291  0.53160452    -0.94800
O657        O  0.42301195  0.91036666  0.52697042    -0.90500
O658        O  0.47296671  0.93071099  0.53545105    -0.83700
C659        C  0.44310315  0.90831289  0.53634821     1.11500
O660        O  0.48618795  0.51063801  0.40131020    -0.96800
Zr661      Zr  0.49243256  0.99452584  0.44722556     1.88900
O662        O  0.02621250  0.96798919  0.49378505    -0.73400
O663        O  0.40399649  0.90733648  0.46811755    -0.52700
O664        O  0.45769798  0.94550781  0.42147193    -0.97400
O665        O  0.03866923  0.53333015  0.41680686    -0.54600
O666        O  0.01977620  0.97622915  0.44933758    -0.73900
C667        C  0.02877177  0.96667857  0.46757271     0.98400
O668        O  0.01994804  0.97575632  0.56654406    -0.62800
O669        O  0.06084774  0.61105697  0.53162525    -0.57600
O670        O  0.06225904  0.52498123  0.52969452    -0.94200
O671        O  0.08011902  0.57369089  0.51845590    -0.92700
O672        O  0.00491918  0.56723298  0.58176551    -0.93000
O673        O  0.47562580  0.51013204  0.59844289    -0.91800
C674        C  0.08403008  0.55500079  0.52815762     1.17200
H675        H  0.99677333  0.57768637  0.52019007     0.33200
H676        H  0.45324250  0.96147911  0.55524913     0.44000
H677        H  0.04856773  0.52920372  0.47631290     0.37600
H678        H  0.43074427  0.97379101  0.44709090     0.34000
H679        H  0.40497925  0.48756866  0.56587314     0.25800
H680        H  0.38944350  0.88756941  0.47883688     0.31800
H681        H  0.45706159  0.93003588  0.43240780     0.37700
H682        H  0.51694708  0.58645758  0.56942979     0.32100
H683        H  0.05921461  0.60136079  0.54956523     0.31000
H684        H  0.09718473  0.62058389  0.47607722     0.32700
H685        H  0.05370543  0.53117499  0.42411165     0.31700
H686        H  0.49102222  0.00346598  0.59531854     0.35700
H687        H  0.03203412  0.49937783  0.57467766     0.28400
H688        H  0.43147849  0.54995471  0.43700373     0.32600
H689        H  0.48686284  0.99475567  0.38813114     0.35500
H690        H  0.08349360  0.62573095  0.52738043     0.28100
H691        H  0.49982671  0.96379767  0.57824868     0.41000
H692        H  0.38589360  0.92859494  0.54914467     0.31000
H693        H  0.40652934  0.98244122  0.56998409     0.38600
H694        H  0.04761599  0.55477182  0.42223908     0.30500
H695        H  0.39028863  0.90785312  0.45561614     0.30600
H696        H  0.43663180  0.52906873  0.42147397     0.30800
C697        C  0.25574825  0.92605261  0.40351949    -0.27800
C698        C  0.25682221  0.90709788  0.42183529     0.01800
C699        C  0.22878042  0.87695130  0.42887841     0.29900
C700        C  0.20013495  0.86668861  0.41835493    -0.19600
C701        C  0.19916770  0.88616967  0.40079261    -0.29000
C702        C  0.22721503  0.91566660  0.39284602     0.43900
C703        C  0.28714309  0.91999160  0.43465777     0.05100
O704        O  0.22898894  0.85838980  0.44750421    -0.57500
H705        H  0.17856243  0.84401679  0.42476068     0.18000
O706        O  0.22690641  0.93485200  0.37520858    -0.64200
H707        H  0.27714064  0.94918746  0.39778410     0.16500
C708        C  0.29971310  0.90511966  0.43158906     0.28700
C709        C  0.32852659  0.91809987  0.44393054    -0.25100
C710        C  0.34559016  0.94639765  0.45878676    -0.24400
C711        C  0.33296566  0.96125573  0.46177796     0.40200
C712        C  0.30401114  0.94804698  0.44977892    -0.26900
O713        O  0.28441556  0.87838743  0.41599052    -0.58800
H714        H  0.33805300  0.90656854  0.44109283     0.15800
O715        O  0.34864110  0.98860972  0.47652159    -0.60200
H716        H  0.29459393  0.95971772  0.45235940     0.14300
H717        H  0.22025782  0.92421067  0.35696387     0.46100
H718        H  0.29438797  0.88573166  0.39748420     0.41500
H719        H  0.34167786  0.98185669  0.49595823     0.44900
H720        H  0.22353802  0.84048429  0.43658718     0.36400
C721        C  0.06728088  0.89025364  0.40619708    -0.27800
C722        C  0.08414134  0.91604685  0.42417031     0.01800
C723        C  0.11490180  0.92978324  0.43145951     0.29900
C724        C  0.12823170  0.91747405  0.42129891    -0.19600
C725        C  0.11139184  0.89116474  0.40350724    -0.29000
C726        C  0.08045847  0.87770554  0.39608004     0.43900
C727        C  0.06955263  0.92849756  0.43535928     0.05100
O728        O  0.13227691  0.95541295  0.44859983    -0.57500
H729        H  0.15170635  0.92887241  0.42802157     0.18000
O730        O  0.06281882  0.85214191  0.37886135    -0.64200
H731        H  0.04350110  0.87933820  0.40040269     0.16500
C732        C  0.05850389  0.93942033  0.41752214     0.28700
C733        C  0.04554927  0.95178450  0.42840768    -0.25100
C734        C  0.04290098  0.95331477  0.45720986    -0.24400
C735        C  0.05375193  0.94197981  0.47513625     0.40200
C736        C  0.06698049  0.92982164  0.46412103    -0.26900
O737        O  0.06148719  0.93936099  0.38935654    -0.58800
H738        H  0.03761323  0.96028864  0.41399722     0.15800
O739        O  0.05108496  0.94203150  0.50335448    -0.60200
H740        H  0.07512676  0.92119492  0.47811777     0.14300
H741        H  0.04792346  0.83385068  0.39114581     0.46100
H742        H  0.03746427  0.41782951  0.37811908     0.41500
H743        H  0.57359112  0.96234358  0.50856482     0.44900
H744        H  0.14174162  0.97386259  0.43624827     0.36400
C745        C  0.02979370  0.68108803  0.43993033    -0.27800
C746        C  0.06006903  0.70069848  0.42880332     0.01800
C747        C  0.07640549  0.68959457  0.42713610     0.29900
C748        C  0.06295240  0.65979743  0.43771281    -0.19600
C749        C  0.03278063  0.64024876  0.44926562    -0.29000
C750        C  0.01592888  0.65092392  0.44972970     0.43900
C751        C  0.07462000  0.73303761  0.41992648     0.05100
O752        O  0.10609354  0.70829241  0.41643669    -0.57500
H753        H  0.07623811  0.65199876  0.43692826     0.18000
O754        O  0.98615048  0.63237698  0.46018905    -0.64200
H755        H  0.01687945  0.68928048  0.44108395     0.16500
C756        C  0.08414996  0.74312973  0.39236871     0.28700
C757        C  0.09769861  0.77381009  0.38458413    -0.25100
C758        C  0.10153788  0.79469652  0.40390867    -0.24400
C759        C  0.09219356  0.78462624  0.43158006     0.40200
C760        C  0.07870837  0.75395170  0.43931999    -0.26900
O761        O  0.07977326  0.72299744  0.37277800    -0.58800
H762        H  0.10458509  0.78104253  0.36320941     0.15800
O763        O  0.09789082  0.80513856  0.45152757    -0.60200
H764        H  0.07182721  0.74658789  0.46068233     0.14300
H765        H  0.98874730  0.63815193  0.48001055     0.46100
H766        H  0.05825067  0.71155495  0.36561327     0.41500
H767        H  0.07700823  0.79724652  0.45739912     0.44900
H768        H  0.10387033  0.69917593  0.39808887     0.36400
C769        C  0.16352321  0.87913381  0.22143009    -0.27800
C770        C  0.14366506  0.84953436  0.23438003     0.01800
C771        C  0.12566811  0.82226744  0.21787787     0.29900
C772        C  0.12712437  0.82494570  0.18884623    -0.19600
C773        C  0.14613054  0.85462944  0.17605039    -0.29000
C774        C  0.16470271  0.88179852  0.19254118     0.43900
C775        C  0.14041996  0.84797331  0.26497964     0.05100
O776        O  0.10587229  0.79302962  0.22993858    -0.57500
H777        H  0.11230559  0.80389853  0.17637027     0.18000
O778        O  0.18306993  0.91112018  0.18057946    -0.64200
H779        H  0.17723398  0.90032292  0.23381138     0.16500
C780        C  0.16649085  0.86127030  0.28244165     0.28700
C781        C  0.16392364  0.86331243  0.31106855    -0.25100
C782        C  0.13578807  0.85308693  0.32249954    -0.24400
C783        C  0.10947262  0.83897051  0.30515123     0.40200
C784        C  0.11183428  0.83626110  0.27666212    -0.26900
O785        O  0.19448091  0.87216297  0.27162403    -0.58800
H786        H  0.18428341  0.87399571  0.32420107     0.15800
O787        O  0.08153114  0.82839473  0.31576573    -0.60200
H788        H  0.09163506  0.82618055  0.26347327     0.14300
H789        H  0.20324260  0.91627819  0.17663300     0.46100
H790        H  0.20850429  0.89541945  0.27257824     0.41500
H791        H  0.07027323  0.80627213  0.32134099     0.44900
H792        H  0.11739430  0.78517508  0.22969911     0.36400
C793        C  0.09999773  0.75830466  0.05733977    -0.27800
C794        C  0.09356437  0.73607634  0.07677071     0.01800
C795        C  0.09949202  0.74387215  0.10503567     0.29900
C796        C  0.11171902  0.77383688  0.11357487    -0.19600
C797        C  0.11695257  0.79571155  0.09424010    -0.29000
C798        C  0.11145260  0.78788954  0.06584646     0.43900
C799        C  0.07945102  0.70442987  0.06717167     0.05100
O800        O  0.09241600  0.72205127  0.12447105    -0.57500
H801        H  0.11583816  0.77950676  0.13541388     0.18000
O802        O  0.11674404  0.80881528  0.04627334    -0.64200
H803        H  0.09560711  0.75245958  0.03551144     0.16500
C804        C  0.04865585  0.68413227  0.05688867     0.28700
C805        C  0.03602806  0.65484716  0.04631029    -0.25100
C806        C  0.05406911  0.64567826  0.04518889    -0.24400
C807        C  0.08496101  0.66607540  0.05573979     0.40200
C808        C  0.09733979  0.69516588  0.06680376    -0.26900
O809        O  0.03063668  0.69264252  0.05741663    -0.58800
H810        H  0.51206052  0.63444114  0.05884178     0.15800
O811        O  0.10330938  0.65795362  0.05526431    -0.60200
H812        H  0.12115532  0.71081380  0.07460069     0.14300
H813        H  0.13787358  0.81927171  0.03884992     0.46100
H814        H  0.52325000  0.69205485  0.06529947     0.41500
H815        H  0.09880130  0.64643267  0.07288110     0.44900
H816        H  0.06952097  0.70848412  0.12740770     0.36400
C817        C  0.31624438  0.95939706  0.04518453    -0.27800
C818        C  0.30087342  0.93407306  0.06410436     0.01800
C819        C  0.31551483  0.92188700  0.07170383     0.29900
C820        C  0.34455575  0.93471656  0.06039858    -0.19600
C821        C  0.36007288  0.96041465  0.04207485    -0.29000
C822        C  0.34565376  0.97265436  0.03436728     0.43900
C823        C  0.26946650  0.92013483  0.07538249     0.05100
O824        O  0.30179373  0.89760938  0.09040519    -0.57500
H825        H  0.35529973  0.92490538  0.06641365     0.18000
O826        O  0.35975210  0.99703565  0.01572766    -0.64200
H827        H  0.30519614  0.96862020  0.03832312     0.16500
C828        C  0.26357927  0.93913508  0.08640099     0.28700
C829        C  0.23388612  0.92534261  0.09690912    -0.25100
C830        C  0.20940622  0.89260465  0.09645353    -0.24400
C831        C  0.21526298  0.87358988  0.08554959     0.40200
C832        C  0.24492781  0.88734816  0.07506406    -0.26900
O833        O  0.28689487  0.97117725  0.08762622    -0.58800
H834        H  0.22990977  0.94036891  0.10531494     0.15800
O835        O  0.19195978  0.84157217  0.08426843    -0.60200
H836        H  0.24854935  0.87225558  0.06611768     0.14300
H837        H  0.35926734  0.49239967  0.00809917     0.46100
H838        H  0.28180376  0.97966964  0.07282488     0.41500
H839        H  0.18403196  0.83721682  0.06495989     0.44900
H840        H  0.31173752  0.90776161  0.10846920     0.36400
C841        C  0.07116731  0.92685174  0.03764992    -0.27800
C842        C  0.07708568  0.92827277  0.06614145     0.01800
C843        C  0.07067594  0.94333038  0.08370898     0.29900
C844        C  0.05754651  0.95576082  0.07285618    -0.19600
C845        C  0.05084051  0.95380889  0.04432830    -0.29000
C846        C  0.05831232  0.93953392  0.02664960     0.43900
C847        C  0.08928185  0.91328852  0.07724321     0.05100
O848        O  0.07687061  0.94575834  0.11156997    -0.57500
H849        H  0.05259010  0.96694573  0.08698960     0.18000
O850        O  0.05344334  0.93797091  0.99859140    -0.64200
H851        H  0.07655220  0.91579631  0.02383590     0.16500
C852        C  0.07246722  0.88103769  0.07338330     0.28700
C853        C  0.08493792  0.86736695  0.08254380    -0.25100
C854        C  0.11462849  0.88552552  0.09544585    -0.24400
C855        C  0.13017003  0.91745279  0.10114567     0.40200
C856        C  0.11778653  0.93115382  0.09165200    -0.26900
O857        O  0.04314170  0.86241819  0.06166598    -0.58800
H858        H  0.07050102  0.84234898  0.07985923     0.15800
O859        O  0.15776771  0.93563350  0.11576342    -0.60200
H860        H  0.13064131  0.95590828  0.09536586     0.14300
H861        H  0.03218294  0.91749497  0.99550191     0.46100
H862        H  0.04567361  0.85729624  0.04290291     0.41500
H863        H  0.15180068  0.93538488  0.13510189     0.44900
H864        H  0.05753692  0.92649699  0.11994874     0.36400
C865        C  0.40634564  0.58504638  0.57957755    -0.27800
C866        C  0.39775241  0.59703639  0.56019308     0.01800
C867        C  0.40381673  0.59736862  0.53192259     0.29900
C868        C  0.41769148  0.58509296  0.52337566    -0.19600
C869        C  0.42582184  0.57244024  0.54270418    -0.29000
C870        C  0.42046731  0.57308066  0.57119412     0.43900
C871        C  0.38290201  0.60948472  0.57009048     0.05100
O872        O  0.39754716  0.61091578  0.51272238    -0.57500
H873        H  0.42213588  0.58561445  0.50149643     0.18000
O874        O  0.42923285  0.56251453  0.59119172    -0.64200
H875        H  0.40195048  0.58484204  0.60143266     0.16500
C876        C  0.35369860  0.59790775  0.55981237     0.28700
C877        C  0.33969835  0.60933288  0.57014238    -0.25100
C878        C  0.35374477  0.63167161  0.59171175    -0.24400
C879        C  0.38295902  0.64278202  0.60219325     0.40200
C880        C  0.39727792  0.63185933  0.59127978    -0.26900
O881        O  0.33815508  0.57481208  0.54006594    -0.58800
H882        H  0.31773847  0.59999023  0.56085664     0.15800
O883        O  0.39731903  0.66370083  0.62374328    -0.60200
H884        H  0.41966126  0.64072888  0.59961193     0.14300
H885        H  0.41041164  0.54024625  0.59453423     0.46100
H886        H  0.32793665  0.55484982  0.55034381     0.41500
H887        H  0.41455704  0.68430947  0.61523718     0.44900
H888        H  0.38063635  0.59344875  0.50078712     0.36400
C889        C  0.43188446  0.83604775  0.55853393    -0.27800
C890        C  0.40399541  0.81920265  0.57377174     0.01800
C891        C  0.39009988  0.83264166  0.57783426     0.29900
C892        C  0.40319197  0.86167034  0.56555991    -0.19600
C893        C  0.43057201  0.87812656  0.54961280    -0.29000
C894        C  0.44521225  0.86528978  0.54654028     0.43900
C895        C  0.38897697  0.78712903  0.58431275     0.05100
O896        O  0.36448296  0.81812966  0.59470240    -0.57500
H897        H  0.39205245  0.87153816  0.56880277     0.18000
O898        O  0.47208907  0.88069403  0.53131948    -0.64200
H899        H  0.44294010  0.82609480  0.55532866     0.16500
C900        C  0.35813801  0.76105163  0.57645224     0.28700
C901        C  0.34439405  0.73088172  0.58615025    -0.25100
C902        C  0.36164535  0.72584657  0.60225766    -0.24400
C903        C  0.39280737  0.75163336  0.60938164     0.40200
C904        C  0.40605597  0.78211302  0.60092121    -0.26900
O905        O  0.34188028  0.76457173  0.55802556    -0.58800
H906        H  0.32076794  0.71107545  0.57970834     0.15800
O907        O  0.41039686  0.74724701  0.62467019    -0.60200
H908        H  0.42993208  0.80180391  0.60683515     0.14300
H909        H  0.46497935  0.87428884  0.51186242     0.46100
H910        H  0.34580070  0.76003704  0.53960317     0.41500
H911        H  0.42274834  0.74630074  0.61090511     0.44900
H912        H  0.34696194  0.81152581  0.58233748     0.36400
C913        C  0.17079871  0.61382648  0.54630885    -0.27800
C914        C  0.17443431  0.59504406  0.56173569     0.01800
C915        C  0.14863500  0.56287200  0.56526780     0.29900
C916        C  0.11943617  0.55016656  0.55422811    -0.19600
C917        C  0.11557237  0.56896517  0.53883346    -0.29000
C918        C  0.14196757  0.60102077  0.53443754     0.43900
C919        C  0.20569522  0.60902710  0.57272804     0.05100
O920        O  0.15187316  0.54354796  0.57901369    -0.57500
H921        H  0.09982693  0.52544144  0.55770287     0.18000
O922        O  0.14011482  0.62016401  0.51845264    -0.64200
H923        H  0.19059101  0.63857125  0.54317353     0.16500
C924        C  0.23127157  0.62360458  0.55464559     0.28700
C925        C  0.26039927  0.63550890  0.56494806    -0.25100
C926        C  0.26473992  0.63386639  0.59330429    -0.24400
C927        C  0.23956104  0.62029403  0.61162781     0.40200
C928        C  0.21011900  0.60779076  0.60126065    -0.26900
O929        O  0.22757486  0.62486997  0.52667306    -0.58800
H930        H  0.27965387  0.64574608  0.55067455     0.15800
O931        O  0.24325356  0.61828099  0.63945475    -0.60200
H932        H  0.19067407  0.59694017  0.61542066     0.14300
H933        H  0.14308546  0.61666702  0.49913555     0.46100
H934        H  0.23843580  0.64726035  0.52256788     0.41500
H935        H  0.24090423  0.59919589  0.64168678     0.44900
H936        H  0.15523233  0.53377143  0.56429400     0.36400
C937        C  0.33623321  0.68618310  0.71814959    -0.27800
C938        C  0.32199576  0.65913019  0.73447985     0.01800
C939        C  0.30545127  0.62974148  0.72146126     0.29900
C940        C  0.30484780  0.62802465  0.69248014    -0.19600
C941        C  0.32007063  0.65531605  0.67616189    -0.29000
C942        C  0.33510927  0.68440052  0.68919425     0.43900
C943        C  0.32682655  0.66220354  0.76489727     0.05100
O944        O  0.29060133  0.60273802  0.73686384    -0.57500
H945        H  0.29303016  0.60544486  0.68271147     0.18000
O946        O  0.35104221  0.71158878  0.67390178    -0.64200
H947        H  0.34903459  0.70891356  0.72792922     0.16500
C948        C  0.35687043  0.67793454  0.77614394     0.28700
C949        C  0.36101541  0.67904186  0.80489867    -0.25100
C950        C  0.33560139  0.66526473  0.82289440    -0.24400
C951        C  0.30570272  0.65060484  0.81163238     0.40200
C952        C  0.30144535  0.64887578  0.78280485    -0.26900
O953        O  0.38207396  0.69101874  0.75910660    -0.58800
H954        H  0.38416372  0.69058086  0.81318797     0.15800
O955        O  0.28031875  0.63713647  0.82851992    -0.60200
H956        H  0.27826185  0.63692809  0.77438089     0.14300
H957        H  0.33687952  0.71635578  0.67276163     0.46100
H958        H  0.39283064  0.71374204  0.75826590     0.41500
H959        H  0.27281222  0.61587639  0.83297837     0.44900
H960        H  0.30711000  0.60177072  0.74185094     0.36400
C961        C  0.41880485  0.58962594  0.92098795    -0.27800
C962        C  0.41008703  0.60123230  0.94026389     0.01800
C963        C  0.41507946  0.59991772  0.96868204     0.29900
C964        C  0.42835537  0.58683408  0.97738688    -0.19600
C965        C  0.43702333  0.57498052  0.95813198    -0.29000
C966        C  0.43207372  0.57659607  0.92957362     0.43900
C967        C  0.39574208  0.61450305  0.93019746     0.05100
O968        O  0.40550546  0.60981478  0.98813465    -0.57500
H969        H  0.43157834  0.58577741  0.99938786     0.18000
O970        O  0.44015405  0.56567637  0.90968913    -0.64200
H971        H  0.41533738  0.59072405  0.89903661     0.16500
C972        C  0.40901828  0.64537203  0.93668418     0.28700
C973        C  0.39621405  0.65805841  0.92565504    -0.25100
C974        C  0.36964985  0.64037954  0.90812761    -0.24400
C975        C  0.35629624  0.60916013  0.90191731     0.40200
C976        C  0.36936118  0.59660196  0.91283104    -0.26900
O977        O  0.43573332  0.66404530  0.95250464    -0.58800
H978        H  0.40805065  0.68202627  0.93106649     0.15800
O979        O  0.32995669  0.59044017  0.88565307    -0.60200
H980        H  0.35878265  0.57268489  0.90771885     0.14300
H981        H  0.42125660  0.54330348  0.90703090     0.46100
H982        H  0.42968542  0.66869407  0.96955304     0.41500
H983        H  0.33722965  0.58899755  0.86761288     0.44900
H984        H  0.42479292  0.62751455  0.99793681     0.36400
C985        C  0.43288707  0.84639190  0.92150428    -0.27800
C986        C  0.40156582  0.82041854  0.92715736     0.01800
C987        C  0.38376903  0.82457831  0.94328501     0.29900
C988        C  0.39740633  0.85432921  0.95363305    -0.19600
C989        C  0.42907302  0.88041321  0.94854672    -0.29000
C990        C  0.44668404  0.87614217  0.93198210     0.43900
C991        C  0.38836336  0.78870518  0.91791121     0.05100
O992        O  0.35321964  0.79952387  0.94968767    -0.57500
H993        H  0.38323657  0.85672633  0.96625616     0.18000
O994        O  0.47760378  0.90063597  0.92630521    -0.64200
H995        H  0.44700941  0.84343481  0.90951817     0.16500
C996        C  0.38752108  0.78183723  0.88970250     0.28700
C997        C  0.37544441  0.75166513  0.88185173    -0.25100
C998        C  0.36543207  0.72863369  0.90197023    -0.24400
C999        C  0.36641764  0.73558374  0.93014583     0.40200
C1000       C  0.37741668  0.76526594  0.93787186    -0.26900
O1001       O  0.39801708  0.80430788  0.86971862    -0.58800
H1002       H  0.37493694  0.74659044  0.86014335     0.15800
O1003       O  0.35612248  0.71323882  0.95023380    -0.60200
H1004       H  0.37814923  0.77026482  0.95964465     0.14300
H1005       H  0.47764601  0.90888736  0.90801007     0.46100
H1006       H  0.41867644  0.81149760  0.86399082     0.41500
H1007       H  0.37531762  0.71968972  0.95951368     0.44900
H1008       H  0.34102411  0.79594404  0.93287356     0.36400
C1009       C  0.15679526  0.56985197  0.91808087    -0.27800
C1010       C  0.18421103  0.59153486  0.93348466     0.01800
C1011       C  0.18206868  0.60009326  0.96011464     0.29900
C1012       C  0.15281457  0.58709471  0.97086539    -0.19600
C1013       C  0.12532505  0.56512193  0.95556444    -0.29000
C1014       C  0.12747834  0.55641780  0.92902148     0.43900
C1015       C  0.21490356  0.60496239  0.92170947     0.05100
O1016       O  0.20840917  0.62106826  0.97582083    -0.57500
H1017       H  0.15157167  0.59401061  0.99133043     0.18000
O1018       O  0.10123255  0.53623137  0.91298845    -0.64200
H1019       H  0.15814808  0.56353761  0.89736099     0.16500
C1020       C  0.22060687  0.58532851  0.91234744     0.28700
C1021       C  0.25023752  0.59853265  0.90244513    -0.25100
C1022       C  0.27450726  0.63128707  0.90183030    -0.24400
C1023       C  0.26863835  0.65089709  0.91080388     0.40200
C1024       C  0.23900709  0.63768559  0.92058398    -0.26900
O1025       O  0.19761256  0.55322222  0.91351165    -0.58800
H1026       H  0.25441681  0.58314630  0.89563506     0.15800
O1027       O  0.29224977  0.68287548  0.91204818    -0.60200
H1028       H  0.23497372  0.65308675  0.92772335     0.14300
H1029       H  0.09750228  0.51630074  0.91276956     0.46100
H1030       H  0.20107095  0.54689354  0.93133469     0.41500
H1031       H  0.28807000  0.69154495  0.89661386     0.44900
H1032       H  0.21239633  0.60826199  0.98553407     0.36400
C1033       C  0.85274617  0.15389189  0.89516963     0.86300
C1034       C  0.86845102  0.18777989  0.90384256    -0.54000
C1035       C  0.85388244  0.19823989  0.89382866     0.09200
C1036       C  0.82493303  0.17424239  0.87599239     0.20200
C1037       C  0.81885883  0.13481349  0.90514639    -0.54700
C1038       C  0.80406278  0.14520751  0.89514340     0.09300
C1039       C  0.85081428  0.15412536  0.86344409    -0.54200
C1040       C  0.83650609  0.16489857  0.85325453     0.09900
H1041       H  0.88822609  0.20219289  0.91778085     0.14400
H1042       H  0.81370648  0.18330443  0.86758930     0.00100
H1043       H  0.80801843  0.11551186  0.91985333     0.14700
H1044       H  0.86036171  0.14664951  0.85013186     0.14500
C1045       C  0.84037169  0.14705932  0.60355190     0.86300
C1046       C  0.80721078  0.13242986  0.59369221    -0.54000
C1047       C  0.79669802  0.14668334  0.60398093     0.09200
C1048       C  0.82002910  0.17431216  0.62334676     0.20200
C1049       C  0.86059272  0.18203677  0.59574592    -0.54700
C1050       C  0.84999931  0.19619713  0.60604032     0.09300
C1051       C  0.83805960  0.14599088  0.63532146    -0.54200
C1052       C  0.82773495  0.16045027  0.64578707     0.09900
H1053       H  0.79258603  0.11270298  0.57983699     0.14400
H1054       H  0.81137647  0.18595522  0.63140337     0.00100
H1055       H  0.88070905  0.19417215  0.58211252     0.14700
H1056       H  0.84467772  0.13525053  0.64845069     0.14500
C1057       C  0.63618319  0.37589771  0.10327532     0.86300
C1058       C  0.67060322  0.39373146  0.09562948    -0.54000
C1059       C  0.68260789  0.38081442  0.10645461     0.09200
C1060       C  0.65903278  0.35095204  0.12384966     0.20200
C1061       C  0.61910472  0.34194878  0.09364079    -0.54700
C1062       C  0.63126095  0.32908105  0.10405053     0.09300
C1063       C  0.63538322  0.37384410  0.13496708    -0.54200
C1064       C  0.64726436  0.36090443  0.14574440     0.09900
H1065       H  0.68413775  0.41445132  0.08237183     0.14400
H1066       H  0.66886683  0.34060419  0.13277509     0.00100
H1067       H  0.59974995  0.32894511  0.07921384     0.14700
H1068       H  0.62613308  0.38193124  0.14786591     0.14500
C1069       C  0.62073040  0.37206184  0.39286782     0.86300
C1070       C  0.60265466  0.33860535  0.40434000    -0.54000
C1071       C  0.61342606  0.32400842  0.39565831     0.09200
C1072       C  0.64164121  0.34437410  0.37595765     0.20200
C1073       C  0.65529314  0.38955739  0.40065573    -0.54700
C1074       C  0.66605711  0.37495138  0.39196924     0.09300
C1075       C  0.62005810  0.36864077  0.36120994    -0.54200
C1076       C  0.63072184  0.35396606  0.35228206     0.09900
H1077       H  0.58248177  0.32724187  0.41776131     0.14400
H1078       H  0.65062282  0.33272232  0.36884485     0.00100
H1079       H  0.67040583  0.41125900  0.41217963     0.14700
H1080       H  0.61244460  0.37770758  0.34702189     0.14500
Zr1081     Zr  0.51646050  0.48788149  0.97875565     2.17500
O1082       O  0.52405706  0.47174130  0.93526101    -0.51500
O1083       O  0.53873659  0.47169848  0.00844810    -0.74700
O1084       O  0.56703115  0.02220865  0.96277699    -0.81500
O1085       O  0.93079099  0.41426703  0.97731373    -0.83300
O1086       O  0.58990378  0.07110290  0.97843374    -0.78900
O1087       O  0.97840067  0.43335696  0.96215125    -0.90500
O1088       O  0.53598721  0.48190454  0.05304555    -0.76500
O1089       O  0.53774497  0.02211682  0.01351307    -0.86000
O1090       O  0.98166137  0.46299733  0.01582510    -0.85700
O1091       O  0.52506681  0.03524814  0.95916286    -0.72400
O1092       O  0.97014113  0.47805998  0.96292243    -0.84600
Zr1093     Zr  0.97190280  0.04059416  0.01982048     2.26400
Zr1094     Zr  0.54949851  0.06945171  0.99829268     2.06300
Zr1095     Zr  0.93596045  0.45492624  0.00206141     2.10000
Zr1096     Zr  0.00380620  0.99997820  0.05174791     1.78800
O1097       O  0.89074785  0.42922134  0.97144757    -0.93400
O1098       O  0.54666506  0.03220388  0.08076811    -0.43400
O1099       O  0.96170739  0.49088348  0.03978629    -0.77800
O1100       O  0.51364673  0.04611984  0.03638930    -0.96500
O1101       O  0.00812346  0.06390549  0.98231158    -0.89800
O1102       O  0.94561779  0.00433544  0.98242364    -0.92600
C1103       C  0.54403738  0.47222791  0.03442229     1.01100
C1104       C  0.94866963  0.41143033  0.96432565     1.14000
C1105       C  0.59082404  0.05137424  0.96639282     1.04800
O1106       O  0.59409254  0.09659469  0.02985526    -0.94800
O1107       O  0.55635695  0.11184482  0.02086728    -0.90500
O1108       O  0.01120667  0.09556870  0.03287532    -0.83700
C1109       C  0.53843670  0.11609120  0.03114030     1.11500
O1110       O  0.99289088  0.01813289  0.89982929    -0.96800
Zr1111     Zr  0.98185408  0.02741788  0.94523744     1.88900
O1112       O  0.95419350  0.06144500  0.98930732    -0.73400
O1113       O  0.57794422  0.11200649  0.96441400    -0.52700
O1114       O  0.51912175  0.07424035  0.91633263    -0.97400
O1115       O  0.93332954  0.49167462  0.92016649    -0.54600
O1116       O  0.96025513  0.05321629  0.94503279    -0.73900
C1117       C  0.95198085  0.06330006  0.96293580     0.98400
O1118       O  0.96502530  0.05673848  0.06369242    -0.62800
O1119       O  0.90713543  0.41014654  0.03372537    -0.57600
O1120       O  0.91753576  0.00518998  0.03552133    -0.94200
O1121       O  0.89793445  0.45241113  0.02881991    -0.92700
O1122       O  0.97295791  0.45086495  0.07887989    -0.93000
O1123       O  0.99277553  0.00836836  0.09766887    -0.91800
C1124       C  0.89584584  0.47242630  0.03808207     1.17200
H1125       H  0.97650654  0.44333263  0.02072932     0.33200
H1126       H  0.52284116  0.06015665  0.05208612     0.44000
H1127       H  0.92644974  0.49646635  0.98182038     0.37600
H1128       H  0.53952841  0.04393133  0.94382502     0.34000
H1129       H  0.54424569  0.01802486  0.09515288     0.25800
H1130       H  0.56670349  0.12013045  0.96371579     0.31800
H1131       H  0.03592561  0.08672029  0.92438591     0.37700
H1132       H  0.95414322  0.44845294  0.08223233     0.32100
H1133       H  0.89265865  0.39155432  0.02176563     0.31000
H1134       H  0.87237865  0.41539423  0.98373162     0.32700
H1135       H  0.91832878  0.99114685  0.92706944     0.31700
H1136       H  0.99843490  0.02920512  0.09655994     0.35700
H1137       H  0.94839833  0.05791424  0.06043269     0.28400
H1138       H  0.53957156  0.46914774  0.93933054     0.32600
H1139       H  0.99315724  0.00078448  0.90289041     0.35500
H1140       H  0.92258525  0.40830520  0.04036970     0.28100
H1141       H  0.95569308  0.03866743  0.07645879     0.41000
H1142       H  0.58521354  0.09358439  0.04845885     0.31000
H1143       H  0.56461293  0.03851878  0.06953040     0.38600
H1144       H  0.92424824  0.46995973  0.92492812     0.30500
H1145       H  0.59808652  0.12886438  0.97362218     0.30600
H1146       H  0.53239053  0.99125746  0.91982771     0.30800
Zr1147     Zr  0.95693515  0.03363248  0.47892557     2.17500
O1148       O  0.94668051  0.04654225  0.43445771    -0.51500
O1149       O  0.93762861  0.05222244  0.50923953    -0.74700
O1150       O  0.90186231  0.99591191  0.46557993    -0.81500
O1151       O  0.53853206  0.10504251  0.47162187    -0.83300
O1152       O  0.88096610  0.44588867  0.47855639    -0.78900
O1153       O  0.99249623  0.08861829  0.46477535    -0.90500
O1154       O  0.94703347  0.04697795  0.55370033    -0.76500
O1155       O  0.93275076  0.99723298  0.51657440    -0.86000
O1156       O  0.99299483  0.05859134  0.51668314    -0.85700
O1157       O  0.94541734  0.48742304  0.46076595    -0.72400
O1158       O  0.50063336  0.04059360  0.46043566    -0.84600
Zr1159     Zr  0.50594668  0.48648689  0.52204786     2.26400
Zr1160     Zr  0.92387116  0.45182561  0.49934277     2.06300
Zr1161     Zr  0.53786990  0.06689928  0.49736734     2.10000
Zr1162     Zr  0.96929711  0.02180427  0.55389404     1.78800
O1163       O  0.58172140  0.09441066  0.46531037    -0.93400
O1164       O  0.92025909  0.48357571  0.57759155    -0.41200
O1165       O  0.51678414  0.03266338  0.53687060    -0.77800
O1166       O  0.96009443  0.47579526  0.53737762    -0.96500
O1167       O  0.96963867  0.46225070  0.48288487    -0.89800
O1168       O  0.52980465  0.02126670  0.48356473    -0.92600
C1169       C  0.93677886  0.05519614  0.53551859     1.01100
C1170       C  0.51830310  0.10644840  0.46121513     1.14000
C1171       C  0.87694498  0.46466253  0.46946033     1.04800
O1172       O  0.87902432  0.42102373  0.53022959    -0.94800
O1173       O  0.92149336  0.41157304  0.52198975    -0.90500
O1174       O  0.97099743  0.43206796  0.53280516    -0.83700
C1175       C  0.94120401  0.40940243  0.53212343     1.11500
O1176       O  0.98192621  0.00558008  0.40168546    -0.96800
Zr1177     Zr  0.99197876  0.49834939  0.44527777     1.88900
O1178       O  0.52368289  0.46541031  0.49249637    -0.73400
O1179       O  0.90057864  0.40986232  0.46562400    -0.52700
O1180       O  0.95428450  0.45080589  0.41845771    -0.97400
O1181       O  0.53876598  0.03009957  0.41840330    -0.54600
O1182       O  0.51553149  0.47195291  0.44794343    -0.73900
C1183       C  0.52448309  0.46238094  0.46617605     0.98400
O1184       O  0.51482716  0.47491211  0.56807051    -0.62800
O1185       O  0.56360078  0.11175565  0.52825542    -0.57600
O1186       O  0.56292288  0.02523266  0.53433878    -0.94200
O1187       O  0.58035536  0.07295558  0.51970841    -0.92700
O1188       O  0.50791944  0.06980694  0.57843010    -0.93000
O1189       O  0.97877172  0.00930545  0.59890574    -0.91800
C1190       C  0.58441849  0.05520762  0.53160525     1.17200
H1191       H  0.49691116  0.07608852  0.51852302     0.33200
H1192       H  0.95196054  0.46146767  0.55296521     0.44000
H1193       H  0.54940215  0.02692898  0.47814672     0.37600
H1194       H  0.93065148  0.47844849  0.44554933     0.34000
H1195       H  0.92500928  0.00082200  0.59690242     0.25800
H1196       H  0.87878684  0.39337428  0.47202573     0.31800
H1197       H  0.95162349  0.43392113  0.42897018     0.37700
H1198       H  0.00580287  0.08344622  0.57679801     0.32100
H1199       H  0.56794382  0.10532445  0.54542716     0.31000
H1200       H  0.59488097  0.11688910  0.47029746     0.32700
H1201       H  0.55219188  0.02478754  0.42220163     0.31700
H1202       H  0.99326748  0.50905309  0.59704563     0.35700
H1203       H  0.53140444  0.99827543  0.57808732     0.28400
H1204       H  0.92944196  0.04671936  0.43774706     0.32600
H1205       H  0.98688522  0.50083078  0.38628128     0.35500
H1206       H  0.58443543  0.12808844  0.51989349     0.28100
H1207       H  0.00136245  0.46434939  0.57487667     0.41000
H1208       H  0.86647109  0.39906972  0.52376838     0.31000
H1209       H  0.90343345  0.47605590  0.56398248     0.38600
H1210       H  0.55017269  0.05107480  0.42677807     0.30500
H1211       H  0.89857661  0.41828108  0.44846829     0.30600
H1212       H  0.93749323  0.02800692  0.42256744     0.30800
C1213       C  0.75356104  0.42854019  0.40558780    -0.27800
C1214       C  0.75565581  0.40898463  0.42188995     0.01800
C1215       C  0.72835733  0.37740139  0.42623909     0.29900
C1216       C  0.69960654  0.36629858  0.41513718    -0.19600
C1217       C  0.69743177  0.38625230  0.39989373    -0.29000
C1218       C  0.72482570  0.41741420  0.39457456     0.43900
C1219       C  0.78622686  0.42239302  0.43493677     0.05100
O1220       O  0.72907628  0.35794547  0.44304717    -0.57500
H1221       H  0.67864155  0.34238578  0.41959571     0.18000
O1222       O  0.72373491  0.43737521  0.37906327    -0.64200
H1223       H  0.77431201  0.45270810  0.40163337     0.16500
C1224       C  0.79949813  0.40819510  0.43169473     0.28700
C1225       C  0.82854394  0.42175492  0.44379306    -0.25100
C1226       C  0.84555265  0.45025432  0.45832202    -0.24400
C1227       C  0.83256459  0.46473606  0.46126810     0.40200
C1228       C  0.80304947  0.45065410  0.44989013    -0.26900
O1229       O  0.78488631  0.38173891  0.41585487    -0.58800
H1230       H  0.83836855  0.41052108  0.44085881     0.15800
O1231       O  0.84854361  0.49269343  0.47510123    -0.60200
H1232       H  0.79332559  0.46200688  0.45259508     0.14300
H1233       H  0.71960738  0.42951998  0.35978544     0.46100
H1234       H  0.79438681  0.38954077  0.39721273     0.41500
H1235       H  0.84054470  0.48681661  0.49435184     0.44900
H1236       H  0.72337231  0.34064298  0.43096453     0.36400
C1237       C  0.56147815  0.38435142  0.40388902    -0.27800
C1238       C  0.57675787  0.40859699  0.42337895     0.01800
C1239       C  0.60683405  0.42181311  0.43247997     0.29900
C1240       C  0.62127028  0.41066448  0.42234394    -0.19600
C1241       C  0.60618813  0.38610999  0.40275654    -0.29000
C1242       C  0.57567076  0.37282329  0.39388307     0.43900
C1243       C  0.56161514  0.42060263  0.43387995     0.05100
O1244       O  0.62228681  0.44559503  0.45157689    -0.57500
H1245       H  0.64393267  0.42112584  0.43079126     0.18000
O1246       O  0.55949522  0.34856575  0.37524246    -0.64200
H1247       H  0.53826134  0.37402897  0.39667841     0.16500
C1248       C  0.55927029  0.43958375  0.41705045     0.28700
C1249       C  0.54718788  0.45288893  0.42787911    -0.25100
C1250       C  0.53683932  0.44731889  0.45554816    -0.24400
C1251       C  0.53838748  0.42738121  0.47211633     0.40200
C1252       C  0.55083338  0.41434883  0.46126213    -0.26900
O1253       O  0.56998866  0.44634825  0.39030159    -0.58800
H1254       H  0.54638118  0.46804989  0.41456228     0.15800
O1255       O  0.52696557  0.41965647  0.49860172    -0.60200
H1256       H  0.55220133  0.39939139  0.47429594     0.14300
H1257       H  0.54512031  0.32921018  0.38655333     0.46100
H1258       H  0.53494176  0.91264108  0.38427751     0.41500
H1259       H  0.06023929  0.45342131  0.50649206     0.44900
H1260       H  0.63381594  0.46527015  0.44052572     0.36400
C1261       C  0.52433195  0.17444762  0.43369284    -0.27800
C1262       C  0.55597244  0.19621423  0.42622262     0.01800
C1263       C  0.57442424  0.18753856  0.42824569     0.29900
C1264       C  0.56172713  0.15814402  0.43925732    -0.19600
C1265       C  0.53031308  0.13657606  0.44787269    -0.29000
C1266       C  0.51134736  0.14474392  0.44424765     0.43900
C1267       C  0.57007820  0.22860695  0.41806508     0.05100
O1268       O  0.60534146  0.20825822  0.42074694    -0.57500
H1269       H  0.57670435  0.15237875  0.44128425     0.18000
O1270       O  0.48036496  0.12436055  0.45159933    -0.64200
H1271       H  0.50980796  0.18077769  0.43183049     0.16500
C1272       C  0.57989570  0.23947519  0.39073424     0.28700
C1273       C  0.59395053  0.27053213  0.38377133    -0.25100
C1274       C  0.59859619  0.29124318  0.40384123    -0.24400
C1275       C  0.58899083  0.28034648  0.43135090     0.40200
C1276       C  0.57471678  0.24918771  0.43819856    -0.26900
O1277       O  0.57613089  0.21999050  0.37076182    -0.58800
H1278       H  0.60098413  0.27835643  0.36252419     0.15800
O1279       O  0.59518094  0.30044381  0.45198086    -0.60200
H1280       H  0.56784638  0.24123252  0.45945360     0.14300
H1281       H  0.48011572  0.12852339  0.47147340     0.46100
H1282       H  0.55503085  0.20915088  0.36281911     0.41500
H1283       H  0.57454889  0.29355847  0.45733075     0.44900
H1284       H  0.60577743  0.20240304  0.40154762     0.36400
C1285       C  0.66623894  0.38052324  0.22178676    -0.27800
C1286       C  0.64462916  0.35071204  0.23414447     0.01800
C1287       C  0.62548597  0.32400592  0.21704525     0.29900
C1288       C  0.62759914  0.32742594  0.18812226    -0.19600
C1289       C  0.64849522  0.35730964  0.17593565    -0.29000
C1290       C  0.66820009  0.38392808  0.19291131     0.43900
C1291       C  0.64039650  0.34825974  0.26468954     0.05100
O1292       O  0.60399245  0.29459507  0.22842899    -0.57500
H1293       H  0.61204144  0.30685230  0.17520664     0.18000
O1294       O  0.68858519  0.41346695  0.18145989    -0.64200
H1295       H  0.68075889  0.40134918  0.23457864     0.16500
C1296       C  0.66533762  0.35942529  0.28300624     0.28700
C1297       C  0.66148397  0.35977290  0.31167389    -0.25100
C1298       C  0.63309947  0.34965282  0.32239713    -0.24400
C1299       C  0.60777025  0.33719191  0.30415934     0.40200
C1300       C  0.61155487  0.33665349  0.27559953    -0.26900
O1301       O  0.69346385  0.36985450  0.27306188    -0.58800
H1302       H  0.68110563  0.36914440  0.32543081     0.15800
O1303       O  0.57925455  0.32573117  0.31402492    -0.60200
H1304       H  0.59212693  0.32795667  0.26182037     0.14300
H1305       H  0.70755726  0.41649816  0.17689104     0.46100
H1306       H  0.70703153  0.39307895  0.27213929     0.41500
H1307       H  0.56852243  0.30376648  0.31977244     0.44900
H1308       H  0.61490886  0.28612184  0.22987361     0.36400
C1309       C  0.60153358  0.25973550  0.05831849    -0.27800
C1310       C  0.59627404  0.23796594  0.07766230     0.01800
C1311       C  0.60423664  0.24673655  0.10565543     0.29900
C1312       C  0.61620441  0.27672656  0.11407041    -0.19600
C1313       C  0.62022615  0.29807128  0.09479403    -0.29000
C1314       C  0.61365506  0.28960588  0.06656027     0.43900
C1315       C  0.58238399  0.20630981  0.06780392     0.05100
O1316       O  0.60143689  0.22661224  0.12461342    -0.57500
H1317       H  0.62183173  0.28307558  0.13571543     0.18000
O1318       O  0.61919391  0.31042144  0.04672607    -0.64200
H1319       H  0.59600648  0.25342926  0.03663803     0.16500
C1320       C  0.55217687  0.17947578  0.07595863     0.28700
C1321       C  0.53802347  0.15034111  0.06372856    -0.25100
C1322       C  0.55373408  0.14735821  0.04343584    -0.24400
C1323       C  0.58441493  0.17431905  0.03584592     0.40200
C1324       C  0.59817281  0.20346326  0.04767836    -0.26900
O1325       O  0.53597310  0.18161028  0.09535371    -0.58800
H1326       H  0.01558595  0.13010450  0.06883635     0.15800
O1327       O  0.60088830  0.17278748  0.01624460    -0.60200
H1328       H  0.62126883  0.22406833  0.04095808     0.14300
H1329       H  0.64050708  0.32095502  0.03972707     0.46100
H1330       H  0.02147006  0.18263024  0.08111073     0.41500
H1331       H  0.61439741  0.17036618  0.02689446     0.44900
H1332       H  0.58222612  0.21766703  0.13523958     0.36400
C1333       C  0.82426840  0.46168111  0.05767675    -0.27800
C1334       C  0.80784238  0.43469872  0.07461258     0.01800
C1335       C  0.82124045  0.42081056  0.08012714     0.29900
C1336       C  0.84969292  0.43305960  0.06786262    -0.19600
C1337       C  0.86598515  0.46002834  0.05098338    -0.29000
C1338       C  0.85326772  0.47463470  0.04633701     0.43900
C1339       C  0.77626596  0.42060100  0.08521658     0.05100
O1340       O  0.80690866  0.39542987  0.09763896    -0.57500
H1341       H  0.85936858  0.42178964  0.07198573     0.18000
O1342       O  0.86858482  0.50114714  0.03013713    -0.64200
H1343       H  0.81428841  0.47244928  0.05260690     0.16500
C1344       C  0.77046841  0.43947559  0.09674641     0.28700
C1345       C  0.73997389  0.42605802  0.10416353    -0.25100
C1346       C  0.71490787  0.39383822  0.10056187    -0.24400
C1347       C  0.72076161  0.37472055  0.09006384     0.40200
C1348       C  0.75114721  0.38813795  0.08230094    -0.26900
O1349       O  0.79460281  0.47088468  0.10151908    -0.58800
H1350       H  0.73585958  0.44092883  0.11270518     0.15800
O1351       O  0.69681858  0.34309624  0.08633622    -0.60200
H1352       H  0.75484582  0.37321040  0.07309408     0.14300
H1353       H  0.87971007  0.02207711  0.04317369     0.46100
H1354       H  0.79085525  0.48221945  0.08884260     0.41500
H1355       H  0.68850639  0.34114299  0.06752393     0.44900
H1356       H  0.81177446  0.40427450  0.11657892     0.36400
C1357       C  0.58379548  0.43733869  0.03454439    -0.27800
C1358       C  0.58988968  0.43791305  0.06283587     0.01800
C1359       C  0.58220381  0.45100994  0.08158185     0.29900
C1360       C  0.56808350  0.46281488  0.07196025    -0.19600
C1361       C  0.56058410  0.46103101  0.04369939    -0.29000
C1362       C  0.56871921  0.44812304  0.02494812     0.43900
C1363       C  0.60163048  0.42221495  0.07279136     0.05100
O1364       O  0.58733634  0.45134093  0.10947107    -0.57500
H1365       H  0.56224636  0.47260205  0.08690119     0.18000
O1366       O  0.56132696  0.44501576  0.99732459    -0.64200
H1367       H  0.58970478  0.42734251  0.01993170     0.16500
C1368       C  0.58454727  0.39017102  0.06750655     0.28700
C1369       C  0.59544273  0.37521179  0.07728057    -0.25100
C1370       C  0.62375717  0.39181380  0.09235828    -0.24400
C1371       C  0.64014443  0.42387486  0.09836324     0.40200
C1372       C  0.62924016  0.43881770  0.08838108    -0.26900
O1373       O  0.55614068  0.37283686  0.05415178    -0.58800
H1374       H  0.58067161  0.35039146  0.07338419     0.15800
O1375       O  0.66717061  0.44098830  0.11378365    -0.60200
H1376       H  0.64237612  0.46347166  0.09289396     0.14300
H1377       H  0.54058509  0.42364837  0.99552036     0.46100
H1378       H  0.55959810  0.36788596  0.03572905     0.41500
H1379       H  0.66092920  0.44186596  0.13263865     0.44900
H1380       H  0.56956045  0.42987243  0.11617430     0.36400
C1381       C  0.90479317  0.08285728  0.58266000    -0.27800
C1382       C  0.89492729  0.09365043  0.56326369     0.01800
C1383       C  0.89927206  0.09222907  0.53486127     0.29900
C1384       C  0.91334305  0.08017334  0.52623380    -0.19600
C1385       C  0.92287206  0.06882860  0.54553672    -0.29000
C1386       C  0.91843578  0.07034958  0.57411423     0.43900
C1387       C  0.88068581  0.10687228  0.57305221     0.05100
O1388       O  0.89099208  0.10377829  0.51544650    -0.57500
H1389       H  0.91670113  0.07971488  0.50424666     0.18000
O1390       O  0.92746463  0.05993641  0.59399802    -0.64200
H1391       H  0.90157748  0.08381825  0.60460374     0.16500
C1392       C  0.85085127  0.09466894  0.56398369     0.28700
C1393       C  0.83785256  0.10741403  0.57364915    -0.25100
C1394       C  0.85407904  0.13260997  0.59263173    -0.24400
C1395       C  0.88428714  0.14496421  0.60132568     0.40200
C1396       C  0.89705171  0.13183508  0.59188808    -0.26900
O1397       O  0.83399836  0.07014088  0.54564509    -0.58800
H1398       H  0.81505036  0.09703700  0.56572821     0.15800
O1399       O  0.90154310  0.16990309  0.61923177    -0.60200
H1400       H  0.92014103  0.14159047  0.59896576     0.14300
H1401       H  0.90831071  0.03814256  0.59839873     0.46100
H1402       H  0.82453721  0.05096860  0.55694522     0.41500
H1403       H  0.91686366  0.18855526  0.60743844     0.44900
H1404       H  0.87322821  0.08517669  0.50500886     0.36400
C1405       C  0.93284934  0.33960249  0.55689800    -0.27800
C1406       C  0.90226209  0.31963397  0.56734538     0.01800
C1407       C  0.88479642  0.32957129  0.56666367     0.29900
C1408       C  0.89781749  0.35885130  0.55515959    -0.19600
C1409       C  0.92830768  0.37870941  0.54428738    -0.29000
C1410       C  0.94583791  0.36882327  0.54528270     0.43900
C1411       C  0.88850459  0.28802856  0.57787707     0.05100
O1412       O  0.85547165  0.31131532  0.57813194    -0.57500
H1413       H  0.88406568  0.36614752  0.55503008     0.18000
O1414       O  0.97541746  0.38717056  0.53443469    -0.64200
H1415       H  0.94644707  0.33213788  0.55711846     0.16500
C1416       C  0.86086006  0.26076714  0.56606631     0.28700
C1417       C  0.84805344  0.23108194  0.57622226    -0.25100
C1418       C  0.86325404  0.22801020  0.59722866    -0.24400
C1419       C  0.89163560  0.25504073  0.60820467     0.40200
C1420       C  0.90386666  0.28488948  0.59881721    -0.26900
O1421       O  0.84682860  0.26283289  0.54389529    -0.58800
H1422       H  0.82671217  0.21029244  0.56704454     0.15800
O1423       O  0.90735380  0.25252183  0.62825399    -0.60200
H1424       H  0.92548499  0.30561522  0.60770930     0.14300
H1425       H  0.97240302  0.38127780  0.51460748     0.46100
H1426       H  0.85920614  0.26609417  0.52752583     0.41500
H1427       H  0.92042292  0.24948865  0.61801674     0.44900
H1428       H  0.84079149  0.30357477  0.56228786     0.36400
C1429       C  0.67151200  0.11565388  0.54816512    -0.27800
C1430       C  0.67515910  0.09897004  0.56691044     0.01800
C1431       C  0.64910127  0.06776872  0.57379320     0.29900
C1432       C  0.61971216  0.05389600  0.56238476    -0.19600
C1433       C  0.61592106  0.07045356  0.54334608    -0.29000
C1434       C  0.64245399  0.10158795  0.53604508     0.43900
C1435       C  0.70684992  0.11323333  0.57679852     0.05100
O1436       O  0.65231923  0.05029292  0.59090356    -0.57500
H1437       H  0.59992809  0.02995594  0.56826186     0.18000
O1438       O  0.64057474  0.11843441  0.51670671    -0.64200
H1439       H  0.69155469  0.13952388  0.54234581     0.16500
C1440       C  0.72985787  0.12172528  0.55758382     0.28700
C1441       C  0.75915948  0.13322732  0.56683673    -0.25100
C1442       C  0.76630654  0.13704523  0.59520313    -0.24400
C1443       C  0.74374906  0.12967547  0.61451686     0.40200
C1444       C  0.71405363  0.11761361  0.60524274    -0.26900
O1445       O  0.72332716  0.11735185  0.52973316    -0.58800
H1446       H  0.77634513  0.13891982  0.55174229     0.15800
O1447       O  0.75008039  0.13311222  0.64239705    -0.60200
H1448       H  0.69653166  0.11133361  0.62020509     0.14300
H1449       H  0.64252319  0.11172017  0.49852933     0.46100
H1450       H  0.73320069  0.13851870  0.52218613     0.41500
H1451       H  0.74470582  0.11313016  0.64849045     0.44900
H1452       H  0.66022576  0.04254693  0.57884732     0.36400
C1453       C  0.84030953  0.19496874  0.71726162    -0.27800
C1454       C  0.82691181  0.16852377  0.73426224     0.01800
C1455       C  0.81212066  0.13912879  0.72200347     0.29900
C1456       C  0.81144597  0.13654243  0.69314142    -0.19600
C1457       C  0.82543562  0.16308004  0.67604926    -0.29000
C1458       C  0.83934831  0.19232998  0.68828585     0.43900
C1459       C  0.83047730  0.17176862  0.76476604     0.05100
O1460       O  0.79904073  0.11294034  0.73814679    -0.57500
H1461       H  0.80053931  0.11384024  0.68407679     0.18000
O1462       O  0.85419268  0.21887133  0.67223355    -0.64200
H1463       H  0.85215531  0.21779877  0.72649691     0.16500
C1464       C  0.85875576  0.18314908  0.77734163     0.28700
C1465       C  0.86050611  0.18142701  0.80613580    -0.25100
C1466       C  0.83440357  0.16881797  0.82297048    -0.24400
C1467       C  0.80652861  0.15900513  0.81042627     0.40200
C1468       C  0.80468521  0.16033156  0.78148234    -0.26900
O1469       O  0.88429723  0.19430393  0.76152379    -0.58800
H1470       H  0.88229996  0.18958701  0.81533413     0.15800
O1471       O  0.78053770  0.14680393  0.82600478    -0.60200
H1472       H  0.78278153  0.15148235  0.77196948     0.14300
H1473       H  0.83975463  0.22330995  0.67151223     0.46100
H1474       H  0.89512841  0.21681746  0.75822906     0.41500
H1475       H  0.77069111  0.12460733  0.82964420     0.44900
H1476       H  0.81668771  0.11385728  0.74352958     0.36400
C1477       C  0.92052448  0.09171357  0.91446255    -0.27800
C1478       C  0.91142632  0.10318712  0.93339624     0.01800
C1479       C  0.91624252  0.10224452  0.96185972     0.29900
C1480       C  0.92961059  0.08946326  0.97115407    -0.19600
C1481       C  0.93862550  0.07758794  0.95234102    -0.29000
C1482       C  0.93395936  0.07896532  0.92360441     0.43900
C1483       C  0.89700718  0.11626460  0.92329531     0.05100
O1484       O  0.90677170  0.11266316  0.98079628    -0.57500
H1485       H  0.93265352  0.08867669  0.99323865     0.18000
O1486       O  0.94242318  0.06803146  0.90413416    -0.64200
H1487       H  0.91716177  0.09262687  0.89245192     0.16500
C1488       C  0.91300504  0.14846737  0.92564758     0.28700
C1489       C  0.89893659  0.16054436  0.91650757    -0.25100
C1490       C  0.86833783  0.14079386  0.90528226    -0.24400
C1491       C  0.85293923  0.10846653  0.90206839     0.40200
C1492       C  0.86718374  0.09650644  0.91118139    -0.26900
O1493       O  0.94307398  0.16855997  0.93573280    -0.58800
H1494       H  0.91291905  0.18564806  0.91772429     0.15800
O1495       O  0.82363965  0.08813864  0.89045115    -0.60200
H1496       H  0.85479190  0.07163422  0.90896750     0.14300
H1497       H  0.92295572  0.04642056  0.89980575     0.46100
H1498       H  0.94164539  0.17525341  0.95414498     0.41500
H1499       H  0.82720117  0.08791732  0.87041847     0.44900
H1500       H  0.92630119  0.13277640  0.98786848     0.36400
C1501       C  0.93574786  0.34457917  0.92576571    -0.27800
C1502       C  0.90307888  0.32136176  0.92672577     0.01800
C1503       C  0.88552649  0.32808735  0.93902691     0.29900
C1504       C  0.90070206  0.35748779  0.95092856    -0.19600
C1505       C  0.93358302  0.38077672  0.95078279    -0.29000
C1506       C  0.95109878  0.37414140  0.93759347     0.43900
C1507       C  0.88786620  0.28923022  0.91752305     0.05100
O1508       O  0.85351219  0.30574759  0.94008448    -0.57500
H1509       H  0.88649151  0.36182472  0.96052899     0.18000
O1510       O  0.98318205  0.39573259  0.93704238    -0.64200
H1511       H  0.94946344  0.33939762  0.91658782     0.16500
C1512       C  0.88671271  0.28223064  0.88937100     0.28700
C1513       C  0.87427104  0.25195919  0.88164804    -0.25100
C1514       C  0.86376096  0.22888804  0.90189077    -0.24400
C1515       C  0.86422678  0.23572558  0.92997494     0.40200
C1516       C  0.87590969  0.26566927  0.93757832    -0.26900
O1517       O  0.89737722  0.30469613  0.86934902    -0.58800
H1518       H  0.87380258  0.24677820  0.85997825     0.15800
O1519       O  0.85306142  0.21317025  0.95005811    -0.60200
H1520       H  0.87656649  0.27083950  0.95928996     0.14300
H1521       H  0.98854746  0.40638350  0.91878540     0.46100
H1522       H  0.91999797  0.31589823  0.86751314     0.41500
H1523       H  0.87190254  0.21823724  0.95877666     0.44900
H1524       H  0.84595012  0.31069790  0.92425900     0.36400
C1525       C  0.65343728  0.06254461  0.92303014    -0.27800
C1526       C  0.68078942  0.08826811  0.93625073     0.01800
C1527       C  0.67833473  0.10090177  0.96005053     0.29900
C1528       C  0.64893935  0.08876801  0.96949826    -0.19600
C1529       C  0.62150268  0.06323211  0.95610989    -0.29000
C1530       C  0.62395588  0.04967646  0.93302470     0.43900
C1531       C  0.71177774  0.10240451  0.92467070     0.05100
O1532       O  0.70454963  0.12511371  0.97425919    -0.57500
H1533       H  0.64761621  0.09914290  0.98761334     0.18000
O1534       O  0.59779536  0.02476510  0.91930231    -0.64200
H1535       H  0.65491747  0.05268573  0.90459545     0.16500
C1536       C  0.71996378  0.08395792  0.91891842     0.28700
C1537       C  0.74964506  0.09811569  0.90853756    -0.25100
C1538       C  0.77185001  0.13078946  0.90394634    -0.24400
C1539       C  0.76333190  0.14914281  0.90922685     0.40200
C1540       C  0.73350732  0.13485035  0.91943488    -0.26900
O1541       O  0.69933698  0.05213731  0.92375108    -0.58800
H1542       H  0.75537628  0.08340455  0.90427498     0.15800
O1543       O  0.78447069  0.18124185  0.90629900    -0.60200
H1544       H  0.72741845  0.14930745  0.92351124     0.14300
H1545       H  0.59433064  0.00596048  0.92621976     0.46100
H1546       H  0.70149079  0.04969684  0.94376792     0.41500
H1547       H  0.77630886  0.18606555  0.89092736     0.44900
H1548       H  0.71000758  0.11495414  0.98651468     0.36400
C1549       C  0.85507220  0.65363385  0.89871495     0.86300
C1550       C  0.86986531  0.68718319  0.90789276    -0.54000
C1551       C  0.85567606  0.69770958  0.89692789     0.09200
C1552       C  0.82804211  0.67407793  0.87771030     0.20200
C1553       C  0.82046366  0.63378696  0.90671784    -0.54700
C1554       C  0.80634586  0.64448760  0.89585645     0.09300
C1555       C  0.85530118  0.65497629  0.86690495    -0.54200
C1556       C  0.84097288  0.66536033  0.85574221     0.09900
H1557       H  0.88886169  0.70142593  0.92256453     0.14400
H1558       H  0.81677156  0.68297346  0.86890755     0.00100
H1559       H  0.80851174  0.61371224  0.92068943     0.14700
H1560       H  0.86518376  0.64736477  0.85429670     0.14500
C1561       C  0.84173143  0.64680931  0.60535800     0.86300
C1562       C  0.80812651  0.63019296  0.59555216    -0.54000
C1563       C  0.79579755  0.64288525  0.60526976     0.09200
C1564       C  0.81797899  0.67081038  0.62495555     0.20200
C1565       C  0.86030444  0.68153673  0.59780330    -0.54700
C1566       C  0.84795179  0.69406698  0.60785742     0.09300
C1567       C  0.83904425  0.64528925  0.63704604    -0.54200
C1568       C  0.82675910  0.65785504  0.64759327     0.09900
H1569       H  0.79409786  0.60942033  0.58283087     0.14400
H1570       H  0.80826223  0.68142994  0.63287401     0.00100
H1571       H  0.88079425  0.69474230  0.58454866     0.14700
H1572       H  0.84651998  0.63528139  0.65007382     0.14500
C1573       C  0.63168031  0.87384288  0.10183866     0.86300
C1574       C  0.66560762  0.89261517  0.09213332    -0.54000
C1575       C  0.67998708  0.88192396  0.10237491     0.09200
C1576       C  0.65904412  0.85325872  0.12180887     0.20200
C1577       C  0.61570764  0.83973819  0.09363969    -0.54700
C1578       C  0.63010283  0.82920979  0.10405015     0.09300
C1579       C  0.63345020  0.87397521  0.13361558    -0.54200
C1580       C  0.64761339  0.86319025  0.14403061     0.09900
H1581       H  0.67711365  0.91256911  0.07811572     0.14400
H1582       H  0.67040215  0.84427636  0.13023642     0.00100
H1583       H  0.59613172  0.82531116  0.07951242     0.14700
H1584       H  0.62359879  0.88123078  0.14679112     0.14500
C1585       C  0.62620869  0.87605067  0.39189973     0.86300
C1586       C  0.60864176  0.84291545  0.40402640    -0.54000
C1587       C  0.61858606  0.82785471  0.39442926     0.09200
C1588       C  0.64519055  0.84716011  0.37323397     0.20200
C1589       C  0.66107996  0.89328908  0.39788033    -0.54700
C1590       C  0.67072849  0.87795063  0.38823284     0.09300
C1591       C  0.62337602  0.87163271  0.36027714    -0.54200
C1592       C  0.63304165  0.85633805  0.35042747     0.09900
H1593       H  0.58982603  0.83232565  0.41892760     0.14400
H1594       H  0.65341323  0.83498432  0.36552966     0.00100
H1595       H  0.67704795  0.91504443  0.40919129     0.14700
H1596       H  0.61538608  0.88084059  0.34680194     0.14500
Zr1597     Zr  0.51206554  0.98724670  0.97525612     2.17500
O1598       O  0.51974838  0.97195741  0.93137557    -0.51500
O1599       O  0.53084564  0.96685287  0.00438660    -0.74700
O1600       O  0.57049885  0.52316433  0.96356504    -0.81500
O1601       O  0.92777621  0.91602858  0.97317776    -0.83300
O1602       O  0.59349631  0.57225188  0.97891021    -0.78900
O1603       O  0.97582080  0.93233988  0.96377704    -0.90500
O1604       O  0.52678145  0.97580509  0.04907952    -0.76500
O1605       O  0.54357665  0.52528294  0.01519838    -0.86000
O1606       O  0.97792632  0.96362655  0.01458713    -0.85700
O1607       O  0.52707613  0.53430085  0.96124554    -0.72400
O1608       O  0.96925002  0.97951394  0.96026838    -0.84600
Zr1609     Zr  0.97252687  0.53768044  0.02341654     2.26400
Zr1610     Zr  0.55308233  0.57108464  0.99854494     2.06300
Zr1611     Zr  0.93376225  0.95705692  0.99835505     2.10000
Zr1612     Zr  0.00802177  0.49967862  0.05261016     1.78800
O1613       O  0.88805695  0.92983086  0.96813812    -0.93400
O1614       O  0.55770441  0.53925201  0.08073758    -0.43400
O1615       O  0.95879243  0.99270877  0.03654970    -0.77800
O1616       O  0.51965605  0.54925897  0.03824579    -0.96500
O1617       O  0.00715719  0.56176711  0.98494494    -0.89800
O1618       O  0.94590809  0.50118878  0.98630676    -0.92600
C1619       C  0.53465673  0.96582920  0.03050457     1.01100
C1620       C  0.94581140  0.91162211  0.96332950     1.14000
C1621       C  0.59418114  0.55243002  0.96664083     1.04800
O1622       O  0.59968016  0.60291564  0.02770343    -0.94800
O1623       O  0.55903496  0.61373668  0.02004537    -0.90500
O1624       O  0.01032596  0.59304109  0.03477986    -0.83700
C1625       C  0.54103963  0.61753172  0.03115653     1.11500
O1626       O  0.98925430  0.51424945  0.90211972    -0.96800
Zr1627     Zr  0.98087478  0.52512818  0.94813537     1.88900
O1628       O  0.95301023  0.55780738  0.99485502    -0.73400
O1629       O  0.57652040  0.60985367  0.96132755    -0.52700
O1630       O  0.51592449  0.57080276  0.91888451    -0.97400
O1631       O  0.93416731  0.99131865  0.91802339    -0.54600
O1632       O  0.95768833  0.54932097  0.95022642    -0.73900
C1633       C  0.94971680  0.55923009  0.96866141     0.98400
O1634       O  0.96407793  0.54961561  0.06903525    -0.62800
O1635       O  0.90624175  0.91222488  0.03001597    -0.57600
O1636       O  0.91781207  0.50239897  0.03683375    -0.94200
O1637       O  0.89494196  0.95597998  0.02129016    -0.92700
O1638       O  0.96885427  0.95231508  0.07944435    -0.93000
O1639       O  0.99973961  0.50983681  0.09892649    -0.91800
C1640       C  0.89405235  0.97555987  0.03371456     1.17200
H1641       H  0.97186892  0.94362467  0.01981645     0.33200
H1642       H  0.52950731  0.56421238  0.05326215     0.44000
H1643       H  0.92661760  0.00030945  0.97737247     0.37600
H1644       H  0.54059565  0.54239367  0.94525516     0.34000
H1645       H  0.55769616  0.52583127  0.09427937     0.25800
H1646       H  0.56890618  0.62138109  0.96420639     0.31800
H1647       H  0.01625403  0.58913140  0.93102150     0.37700
H1648       H  0.94799719  0.94616475  0.07712546     0.32100
H1649       H  0.89857839  0.91739879  0.04521284     0.31000
H1650       H  0.87265077  0.90858981  0.97640973     0.32700
H1651       H  0.91864249  0.49375090  0.92826360     0.31700
H1652       H  0.98435914  0.51285537  0.09628391     0.35700
H1653       H  0.95026279  0.52928090  0.07908665     0.28400
H1654       H  0.53379668  0.96751258  0.93571672     0.32600
H1655       H  0.98331880  0.52328671  0.88893575     0.35500
H1656       H  0.88708184  0.89497329  0.01985472     0.28100
H1657       H  0.98436756  0.56125157  0.07885559     0.41000
H1658       H  0.59169810  0.59984343  0.04675066     0.31000
H1659       H  0.57470935  0.54641109  0.06768088     0.38600
H1660       H  0.92725010  0.97022982  0.92196417     0.30500
H1661       H  0.59905089  0.62521220  0.96610942     0.30600
H1662       H  0.53485999  0.49017885  0.92270547     0.30800
Zr1663     Zr  0.95470220  0.53293624  0.47805213     2.17500
O1664       O  0.93977333  0.54500042  0.43598391    -0.51500
O1665       O  0.93844756  0.55332601  0.50954199    -0.74700
O1666       O  0.89844351  0.49478697  0.46868895    -0.81500
O1667       O  0.54450074  0.60923633  0.47477956    -0.83300
O1668       O  0.88270734  0.94658417  0.47653271    -0.78900
O1669       O  0.99025770  0.58715707  0.46172169    -0.90500
O1670       O  0.94632075  0.54588622  0.55375013    -0.76500
O1671       O  0.93189722  0.49674239  0.51570926    -0.86000
O1672       O  0.99178724  0.55822189  0.51501599    -0.85700
O1673       O  0.94767017  0.98786480  0.46247787    -0.72400
O1674       O  0.50451370  0.54519638  0.46168394    -0.84600
Zr1675     Zr  0.50761876  0.98632562  0.52242618     2.26400
Zr1676     Zr  0.92407628  0.95181863  0.50076545     2.06300
Zr1677     Zr  0.53991609  0.56887172  0.50017273     2.10000
Zr1678     Zr  0.96905512  0.52150139  0.55241210     1.78800
O1679       O  0.58610521  0.59947840  0.47076819    -0.93400
O1680       O  0.92186382  0.98745649  0.58148685    -0.41200
O1681       O  0.51615132  0.53294798  0.53844653    -0.77800
O1682       O  0.95979881  0.97561008  0.53920371    -0.96500
O1683       O  0.97016306  0.96183530  0.48529879    -0.89800
O1684       O  0.53088447  0.52315957  0.48463547    -0.92600
C1685       C  0.93730424  0.55552853  0.53585256     1.01100
C1686       C  0.52575910  0.61225751  0.46364542     1.14000
C1687       C  0.87995401  0.96585361  0.46592589     1.04800
O1688       O  0.88006791  0.92644364  0.53239460    -0.94800
O1689       O  0.92026560  0.91122357  0.52505510    -0.90500
O1690       O  0.96975982  0.93102643  0.53481508    -0.83700
C1691       C  0.93989104  0.90870034  0.53485379     1.11500
O1692       O  0.98228054  0.51036783  0.40001579    -0.96800
Zr1693     Zr  0.99423420  0.99832919  0.44796252     1.88900
O1694       O  0.52780884  0.96796125  0.49300045    -0.73400
O1695       O  0.89921872  0.90782831  0.46893200    -0.52700
O1696       O  0.95805134  0.94873488  0.42327381    -0.97400
O1697       O  0.54412112  0.53572001  0.42239469    -0.54600
O1698       O  0.51742683  0.97194132  0.44850304    -0.73900
C1699       C  0.52838701  0.96451195  0.46678726     0.98400
O1700       O  0.52004014  0.97797844  0.56833700    -0.62800
O1701       O  0.56411170  0.61245109  0.53245214    -0.57600
O1702       O  0.56119998  0.52262319  0.53445853    -0.94200
O1703       O  0.58020234  0.57175037  0.52323827    -0.92700
O1704       O  0.50301325  0.56838456  0.58212353    -0.93000
O1705       O  0.97561107  0.50885749  0.59874465    -0.91800
C1706       C  0.58328588  0.55263520  0.53347001     1.17200
H1707       H  0.49948754  0.57933645  0.51984042     0.33200
H1708       H  0.95129898  0.96130103  0.55483222     0.44000
H1709       H  0.55033436  0.52820819  0.47976789     0.37600
H1710       H  0.93353613  0.97909603  0.44679842     0.34000
H1711       H  0.91922748  0.49630869  0.59079477     0.25800
H1712       H  0.87695703  0.89292820  0.47454670     0.31800
H1713       H  0.95762047  0.93338568  0.43419896     0.37700
H1714       H  0.00827829  0.58479620  0.57187633     0.32100
H1715       H  0.57351818  0.60849755  0.54723991     0.31000
H1716       H  0.60094072  0.62009245  0.48008082     0.32700
H1717       H  0.55738922  0.53084618  0.42862561     0.31700
H1718       H  0.98973266  0.00135754  0.59465058     0.35700
H1719       H  0.52950710  0.49547309  0.57748874     0.28400
H1720       H  0.92407450  0.54667861  0.44184543     0.32600
H1721       H  0.98814481  0.99686998  0.38874680     0.35500
H1722       H  0.58223746  0.63103585  0.52233261     0.28100
H1723       H  0.00000266  0.96036899  0.57655583     0.41000
H1724       H  0.88935056  0.93031865  0.55107548     0.31000
H1725       H  0.90528927  0.98410854  0.56992765     0.38600
H1726       H  0.55398649  0.55641558  0.43070192     0.30500
H1727       H  0.89917864  0.91619296  0.45077744     0.30600
H1728       H  0.92799812  0.52577490  0.42450712     0.30800
C1729       C  0.75853386  0.92980347  0.39572309    -0.27800
C1730       C  0.76105518  0.91222006  0.41454523     0.01800
C1731       C  0.73373610  0.88199257  0.42258656     0.29900
C1732       C  0.70446632  0.87025253  0.41243315    -0.19600
C1733       C  0.70198802  0.88853512  0.39471858    -0.29000
C1734       C  0.72924622  0.91809468  0.38577638     0.43900
C1735       C  0.79202449  0.92630260  0.42676385     0.05100
O1736       O  0.73519546  0.86499989  0.44215328    -0.57500
H1737       H  0.68351609  0.84756006  0.41963698     0.18000
O1738       O  0.72737680  0.93603199  0.36790660    -0.64200
H1739       H  0.77931670  0.95292529  0.38913388     0.16500
C1740       C  0.80412594  0.91083240  0.42537040     0.28700
C1741       C  0.83253482  0.92373745  0.43845992    -0.25100
C1742       C  0.84970583  0.95248512  0.45262400    -0.24400
C1743       C  0.83792914  0.96832746  0.45343523     0.40200
C1744       C  0.80942453  0.95531083  0.44046081    -0.26900
O1745       O  0.78848890  0.88318778  0.41109800    -0.58800
H1746       H  0.84142073  0.91144942  0.43716037     0.15800
O1747       O  0.85362779  0.99609689  0.46752101    -0.60200
H1748       H  0.80046698  0.96753623  0.44170757     0.14300
H1749       H  0.72618887  0.92820622  0.34915550     0.46100
H1750       H  0.79290396  0.88937433  0.39126835     0.41500
H1751       H  0.84562905  0.98990513  0.48676493     0.44900
H1752       H  0.72890915  0.84612297  0.43239945     0.36400
C1753       C  0.56770767  0.88825678  0.40690414    -0.27800
C1754       C  0.58473525  0.91456317  0.42422012     0.01800
C1755       C  0.61593410  0.92909821  0.43081973     0.29900
C1756       C  0.62961947  0.91730602  0.42014651    -0.19600
C1757       C  0.61263008  0.89075824  0.40264114    -0.29000
C1758       C  0.58124070  0.87638340  0.39621068     0.43900
C1759       C  0.56975257  0.92669779  0.43515046     0.05100
O1760       O  0.63329624  0.95482684  0.44785352    -0.57500
H1761       H  0.65337390  0.92908527  0.42630207     0.18000
O1762       O  0.56354966  0.85072486  0.37911653    -0.64200
H1763       H  0.54354149  0.87651273  0.40188046     0.16500
C1764       C  0.55643257  0.93512416  0.41712353     0.28700
C1765       C  0.54358642  0.94773082  0.42773268    -0.25100
C1766       C  0.54253868  0.95113766  0.45649228    -0.24400
C1767       C  0.55475666  0.94136257  0.47457988     0.40200
C1768       C  0.56839823  0.92954382  0.46382923    -0.26900
O1769       O  0.55653301  0.93184008  0.38899586    -0.58800
H1770       H  0.53419963  0.95463419  0.41318741     0.15800
O1771       O  0.55292142  0.94251000  0.50278036    -0.60200
H1772       H  0.57767973  0.92222077  0.47800251     0.14300
H1773       H  0.54967553  0.83234058  0.39159454     0.46100
H1774       H  0.55140924  0.43041098  0.37879722     0.41500
H1775       H  0.07146692  0.96178948  0.50974872     0.44900
H1776       H  0.64209729  0.97314883  0.43553088     0.36400
C1777       C  0.53603261  0.67879672  0.42594598    -0.27800
C1778       C  0.56783147  0.70407345  0.43056383     0.01800
C1779       C  0.58608664  0.69904751  0.44490057     0.29900
C1780       C  0.57221799  0.66906068  0.45514658    -0.19600
C1781       C  0.53997198  0.64353865  0.45131582    -0.29000
C1782       C  0.52201900  0.64872665  0.43614429     0.43900
C1783       C  0.58146746  0.73586482  0.42121809     0.05100
O1784       O  0.61738866  0.72342317  0.44941919    -0.57500
H1785       H  0.58680250  0.66599008  0.46646649     0.18000
O1786       O  0.49090682  0.62459630  0.43069957    -0.64200
H1787       H  0.52188563  0.68252556  0.41473612     0.16500
C1788       C  0.58661489  0.74395606  0.39295918     0.28700
C1789       C  0.59904455  0.77411748  0.38458306    -0.25100
C1790       C  0.60565871  0.79621370  0.40407374    -0.24400
C1791       C  0.60041308  0.78798874  0.43244142     0.40200
C1792       C  0.58870421  0.75805741  0.44081276    -0.26900
O1793       O  0.58011319  0.72272206  0.37347745    -0.58800
H1794       H  0.60296771  0.78005843  0.36272910     0.15800
O1795       O  0.60789961  0.80942319  0.45219364    -0.60200
H1796       H  0.58491946  0.75200032  0.46265102     0.14300
H1797       H  0.47948861  0.62647930  0.44479463     0.46100
H1798       H  0.55815024  0.71142755  0.36774833     0.41500
H1799       H  0.58757531  0.80214069  0.45914903     0.44900
H1800       H  0.62772396  0.72646992  0.43160274     0.36400
C1801       C  0.66885685  0.88119830  0.21999158    -0.27800
C1802       C  0.64502141  0.85182486  0.23218816     0.01800
C1803       C  0.62394151  0.82566534  0.21501213     0.29900
C1804       C  0.62605148  0.82937396  0.18615691    -0.19600
C1805       C  0.64895030  0.85899821  0.17409445    -0.29000
C1806       C  0.67091282  0.88487238  0.19112160     0.43900
C1807       C  0.64070621  0.84948036  0.26265883     0.05100
O1808       O  0.60043149  0.79666688  0.22624107    -0.57500
H1809       H  0.60894607  0.80936487  0.17319550     0.18000
O1810       O  0.69358710  0.91407734  0.17979592    -0.64200
H1811       H  0.68508335  0.90159438  0.23291734     0.16500
C1812       C  0.66453888  0.85742846  0.28089966     0.28700
C1813       C  0.66128339  0.85854978  0.30950949    -0.25100
C1814       C  0.63438920  0.85182091  0.32035385    -0.24400
C1815       C  0.60978530  0.84216056  0.30214333     0.40200
C1816       C  0.61313522  0.84117421  0.27356903    -0.26900
O1817       O  0.69079188  0.86352286  0.27095581    -0.58800
H1818       H  0.68031485  0.86570126  0.32314020     0.15800
O1819       O  0.58254262  0.83405436  0.31194590    -0.60200
H1820       H  0.59447700  0.83475250  0.25977880     0.14300
H1821       H  0.70972840  0.91351572  0.17274145     0.46100
H1822       H  0.70695260  0.88676065  0.26983380     0.41500
H1823       H  0.57021163  0.81223280  0.31901658     0.44900
H1824       H  0.61073611  0.78847394  0.23274658     0.36400
C1825       C  0.61034947  0.76453863  0.05787267    -0.27800
C1826       C  0.59652231  0.73949344  0.07667058     0.01800
C1827       C  0.59597620  0.74470584  0.10509423     0.29900
C1828       C  0.60878617  0.77470722  0.11423119    -0.19600
C1829       C  0.62104860  0.79917678  0.09511192    -0.29000
C1830       C  0.62252823  0.79420573  0.06691181     0.43900
C1831       C  0.58240366  0.70807907  0.06595923     0.05100
O1832       O  0.58305826  0.72068437  0.12396354    -0.57500
H1833       H  0.60791465  0.77848566  0.13602393     0.18000
O1834       O  0.63528880  0.81812347  0.04796646    -0.64200
H1835       H  0.61100375  0.76084571  0.03599217     0.16500
C1836       C  0.55007853  0.68276750  0.06805593     0.28700
C1837       C  0.53701176  0.65356901  0.05669890    -0.25100
C1838       C  0.55567756  0.64912400  0.04256218    -0.24400
C1839       C  0.58817122  0.67496550  0.04011798     0.40200
C1840       C  0.60112254  0.70404092  0.05166913    -0.26900
O1841       O  0.53092561  0.68657046  0.08054581    -0.58800
H1842       H  0.01225013  0.63956385  0.03842126     0.15800
O1843       O  0.60753891  0.67244442  0.02606915    -0.60200
H1844       H  0.62597367  0.72362044  0.04941457     0.14300
H1845       H  0.65765275  0.82812544  0.04676707     0.46100
H1846       H  0.03363055  0.70232942  0.03904150     0.41500
H1847       H  0.61654287  0.66754083  0.04045684     0.44900
H1848       H  0.56277949  0.71469715  0.12922820     0.36400
C1849       C  0.82924259  0.96827093  0.06995174    -0.27800
C1850       C  0.80458844  0.93566110  0.06908990     0.01800
C1851       C  0.80968080  0.91632372  0.05787716     0.29900
C1852       C  0.83890944  0.92964886  0.04687967    -0.19600
C1853       C  0.86372204  0.96249618  0.04679103    -0.29000
C1854       C  0.85867498  0.98178973  0.05898390     0.43900
C1855       C  0.77292375  0.92198912  0.07802562     0.05100
O1856       O  0.78581538  0.88436588  0.05677126    -0.57500
H1857       H  0.84189738  0.91400979  0.03810197     0.18000
O1858       O  0.88210971  0.01379855  0.06024973    -0.64200
H1859       H  0.82544331  0.98333584  0.07863124     0.16500
C1860       C  0.76351090  0.91348928  0.10578188     0.28700
C1861       C  0.73301873  0.89999748  0.11344812    -0.25100
C1862       C  0.71182488  0.89527001  0.09369484    -0.24400
C1863       C  0.72121171  0.90314366  0.06571943     0.40200
C1864       C  0.75152148  0.91627461  0.05811791    -0.26900
O1865       O  0.78372170  0.91757759  0.12533243    -0.58800
H1866       H  0.72611668  0.89369674  0.13493582     0.15800
O1867       O  0.70048400  0.89668212  0.04545576    -0.60200
H1868       H  0.75834628  0.92194253  0.03654582     0.14300
H1869       H  0.86144795  0.49337166  0.01093503     0.46100
H1870       H  0.79100486  0.93633014  0.13602802     0.41500
H1871       H  0.70754553  0.91741738  0.03946817     0.44900
H1872       H  0.78949519  0.87579561  0.07271216     0.36400
C1873       C  0.56952885  0.92564080  0.03182424    -0.27800
C1874       C  0.57761609  0.92827863  0.05990182     0.01800
C1875       C  0.57148656  0.94315684  0.07811580     0.29900
C1876       C  0.55765758  0.95522644  0.06822518    -0.19600
C1877       C  0.54930105  0.95254914  0.04011644    -0.29000
C1878       C  0.55517283  0.93721742  0.02192008     0.43900
C1879       C  0.59116718  0.91426049  0.07026083     0.05100
O1880       O  0.57843786  0.94555999  0.10579138    -0.57500
H1881       H  0.55335211  0.96661419  0.08281722     0.18000
O1882       O  0.54678971  0.93305873  0.99448709    -0.64200
H1883       H  0.57410178  0.91424583  0.01752794     0.16500
C1884       C  0.57501430  0.88206842  0.06682550     0.28700
C1885       C  0.58764945  0.86890940  0.07719095    -0.25100
C1886       C  0.61694087  0.88752356  0.09087789    -0.24400
C1887       C  0.63258496  0.91977123  0.09484826     0.40200
C1888       C  0.61989263  0.93285463  0.08437747    -0.26900
O1889       O  0.54602176  0.86291009  0.05449721    -0.58800
H1890       H  0.57362962  0.84391613  0.07476410     0.15800
O1891       O  0.66073989  0.93894533  0.10857195    -0.60200
H1892       H  0.63258305  0.95769760  0.08731477     0.14300
H1893       H  0.52463132  0.91331303  0.99386629     0.46100
H1894       H  0.54952748  0.85898696  0.03559268     0.41500
H1895       H  0.65563292  0.94058337  0.12768404     0.44900
H1896       H  0.55946080  0.92609536  0.11434394     0.36400
C1897       C  0.90895455  0.58626777  0.58334564    -0.27800
C1898       C  0.90082176  0.59873337  0.56399547     0.01800
C1899       C  0.90528706  0.59750665  0.53557203     0.29900
C1900       C  0.91761967  0.58381223  0.52689947    -0.19600
C1901       C  0.92503277  0.57048600  0.54610870    -0.29000
C1902       C  0.92055795  0.57182667  0.57467846     0.43900
C1903       C  0.88618450  0.61144510  0.57373315     0.05100
O1904       O  0.89843303  0.61041637  0.51619982    -0.57500
H1905       H  0.92111534  0.58350381  0.50491381     0.18000
O1906       O  0.92716740  0.55899420  0.59436452    -0.64200
H1907       H  0.90535693  0.58685340  0.60526482     0.16500
C1908       C  0.85678557  0.59933006  0.56358231     0.28700
C1909       C  0.84282029  0.61099750  0.57323249    -0.25100
C1910       C  0.85710882  0.63424668  0.59403224    -0.24400
C1911       C  0.88700996  0.64667548  0.60379001     0.40200
C1912       C  0.90104410  0.63497279  0.59394811    -0.26900
O1913       O  0.84108409  0.57554548  0.54446676    -0.58800
H1914       H  0.82088350  0.60140423  0.56371848     0.15800
O1915       O  0.90261203  0.67013403  0.62320607    -0.60200
H1916       H  0.92375404  0.64450471  0.60196541     0.14300
H1917       H  0.90692734  0.53770166  0.59810605     0.46100
H1918       H  0.83055186  0.55590884  0.55537693     0.41500
H1919       H  0.91830540  0.68978365  0.61264129     0.44900
H1920       H  0.88192066  0.59276443  0.50414410     0.36400
C1921       C  0.93048121  0.83772050  0.55821208    -0.27800
C1922       C  0.89964531  0.81750807  0.56828291     0.01800
C1923       C  0.88294066  0.82831385  0.56880257     0.29900
C1924       C  0.89649340  0.85811279  0.55809691    -0.19600
C1925       C  0.92694971  0.87793526  0.54718714    -0.29000
C1926       C  0.94428430  0.86778730  0.54808725     0.43900
C1927       C  0.88565565  0.78567328  0.57890477     0.05100
O1928       O  0.85404717  0.81059122  0.58107493    -0.57500
H1929       H  0.88316462  0.86587109  0.55867215     0.18000
O1930       O  0.97469991  0.88694610  0.53913158    -0.64200
H1931       H  0.94391489  0.83007388  0.55802539     0.16500
C1932       C  0.85589629  0.75835226  0.56997431     0.28700
C1933       C  0.84324235  0.72879903  0.58064964    -0.25100
C1934       C  0.86031553  0.72579787  0.59945748    -0.24400
C1935       C  0.89026912  0.75280272  0.60785543     0.40200
C1936       C  0.90260613  0.78245933  0.59782556    -0.26900
O1937       O  0.83941438  0.76011877  0.55018719    -0.58800
H1938       H  0.82052485  0.70800392  0.57341435     0.15800
O1939       O  0.90739347  0.75047667  0.62629656    -0.60200
H1940       H  0.92552299  0.80305676  0.60488456     0.14300
H1941       H  0.97337731  0.88277402  0.51901911     0.46100
H1942       H  0.84591019  0.75747760  0.53224985     0.41500
H1943       H  0.91946231  0.74707660  0.61477087     0.44900
H1944       H  0.83925806  0.80583383  0.56617815     0.36400
C1945       C  0.67045344  0.60983054  0.55008908    -0.27800
C1946       C  0.67313630  0.59137437  0.56716610     0.01800
C1947       C  0.64657082  0.56014959  0.57303608     0.29900
C1948       C  0.61739994  0.54783573  0.56218398    -0.19600
C1949       C  0.61443104  0.56623422  0.54492525    -0.29000
C1950       C  0.64155092  0.59751918  0.53876851     0.43900
C1951       C  0.70428510  0.60450762  0.57719258     0.05100
O1952       O  0.64901859  0.54144775  0.58906412    -0.57500
H1953       H  0.59713842  0.52377611  0.56719038     0.18000
O1954       O  0.64036020  0.61619629  0.52128644    -0.64200
H1955       H  0.69104210  0.63376569  0.54509778     0.16500
C1956       C  0.72516692  0.60692533  0.55918613     0.28700
C1957       C  0.75499874  0.62017420  0.56849804    -0.25100
C1958       C  0.76446804  0.63086399  0.59594242    -0.24400
C1959       C  0.74341675  0.62851411  0.61395178     0.40200
C1960       C  0.71354102  0.61550258  0.60443179    -0.26900
O1961       O  0.71624885  0.59561667  0.53265137    -0.58800
H1962       H  0.77078557  0.62209515  0.55403225     0.15800
O1963       O  0.75133900  0.63802282  0.64098398    -0.60200
H1964       H  0.69747453  0.61378824  0.61834619     0.14300
H1965       H  0.64500175  0.61286146  0.50263667     0.46100
H1966       H  0.72634837  0.61445532  0.52067534     0.41500
H1967       H  0.74597339  0.61963869  0.65124007     0.44900
H1968       H  0.65181696  0.53006805  0.57573926     0.36400
C1969       C  0.83379553  0.68731014  0.72057417    -0.27800
C1970       C  0.82464783  0.66149855  0.73661088     0.01800
C1971       C  0.81314096  0.63354182  0.72330106     0.29900
C1972       C  0.81202156  0.63204639  0.69430147    -0.19600
C1973       C  0.82282626  0.65842560  0.67805352    -0.29000
C1974       C  0.83281957  0.68589356  0.69147071     0.43900
C1975       C  0.82940607  0.66454132  0.76704968     0.05100
O1976       O  0.80387022  0.60789431  0.73849697    -0.57500
H1977       H  0.80373618  0.61049247  0.68445578     0.18000
O1978       O  0.84421251  0.71232689  0.67645249    -0.64200
H1979       H  0.84281701  0.70900416  0.73064827     0.16500
C1980       C  0.85819441  0.67604847  0.77855584     0.28700
C1981       C  0.86184382  0.67674558  0.80737255    -0.25100
C1982       C  0.83711013  0.66636811  0.82524227    -0.24400
C1983       C  0.80845015  0.65548567  0.81360770     0.40200
C1984       C  0.80480668  0.65464561  0.78472376    -0.26900
O1985       O  0.88262002  0.68579183  0.76174113    -0.58800
H1986       H  0.88409824  0.68534198  0.81577815     0.15800
O1987       O  0.78340339  0.64444448  0.83012040    -0.60200
H1988       H  0.78250327  0.64562829  0.77606527     0.14300
H1989       H  0.82719290  0.71326108  0.67641768     0.46100
H1990       H  0.89440769  0.70852901  0.75853020     0.41500
H1991       H  0.77408691  0.62270508  0.83526633     0.44900
H1992       H  0.82198194  0.60863937  0.73825376     0.36400
C1993       C  0.91908368  0.58918547  0.92156882    -0.27800
C1994       C  0.91001921  0.60040821  0.94084662     0.01800
C1995       C  0.91394122  0.59813156  0.96929994     0.29900
C1996       C  0.92645883  0.58433345  0.97812558    -0.19600
C1997       C  0.93584867  0.57318443  0.95884294    -0.29000
C1998       C  0.93184753  0.57568819  0.93021790     0.43900
C1999       C  0.89618145  0.61411350  0.93081242     0.05100
O2000       O  0.90461089  0.60837664  0.98860610    -0.57500
H2001       H  0.92887910  0.58251429  0.00016136     0.18000
O2002       O  0.94061219  0.56541874  0.91033050    -0.64200
H2003       H  0.91635171  0.59102838  0.89959257     0.16500
C2004       C  0.91128671  0.64585179  0.93536075     0.28700
C2005       C  0.89826979  0.65860105  0.92498681    -0.25100
C2006       C  0.86976783  0.64005653  0.91005347    -0.24400
C2007       C  0.85530627  0.60828601  0.90484886     0.40200
C2008       C  0.86835966  0.59560049  0.91539185    -0.26900
O2009       O  0.93976366  0.66505542  0.94858957    -0.58800
H2010       H  0.91154106  0.68333770  0.92830089     0.15800
O2011       O  0.82809661  0.58926092  0.88971984    -0.60200
H2012       H  0.85674334  0.57116558  0.91140436     0.14300
H2013       H  0.92141352  0.54362537  0.90607582     0.46100
H2014       H  0.93590673  0.67064505  0.96643634     0.41500
H2015       H  0.83422460  0.58671174  0.87151425     0.44900
H2016       H  0.92421567  0.62744228  0.99686680     0.36400
C2017       C  0.93281734  0.84481349  0.92442108    -0.27800
C2018       C  0.90076084  0.82011200  0.92867657     0.01800
C2019       C  0.88340686  0.82583608  0.94322953     0.29900
C2020       C  0.89836235  0.85561274  0.95434468    -0.19600
C2021       C  0.93071579  0.88042603  0.95077228    -0.29000
C2022       C  0.94780406  0.87480770  0.93510289     0.43900
C2023       C  0.88635092  0.78791724  0.91998577     0.05100
O2024       O  0.85181395  0.80232240  0.94689006    -0.57500
H2025       H  0.88445899  0.85910606  0.96597337     0.18000
O2026       O  0.97918079  0.89820787  0.93026754    -0.64200
H2027       H  0.94643324  0.84063314  0.91325271     0.16500
C2028       C  0.88386697  0.78011928  0.89185735     0.28700
C2029       C  0.87260250  0.75013588  0.88449506    -0.25100
C2030       C  0.86461394  0.72808286  0.90497805    -0.24400
C2031       C  0.86597387  0.73549880  0.93308107     0.40200
C2032       C  0.87660174  0.76518933  0.94037565    -0.26900
O2033       O  0.89209367  0.80153817  0.87149818    -0.58800
H2034       H  0.87112337  0.74446446  0.86280690     0.15800
O2035       O  0.85612125  0.71354399  0.95345406    -0.60200
H2036       H  0.87805259  0.77080573  0.96208024     0.14300
H2037       H  0.98038764  0.90892371  0.91316628     0.46100
H2038       H  0.91363096  0.81107362  0.86606321     0.41500
H2039       H  0.87548934  0.72028262  0.96258798     0.44900
H2040       H  0.84188939  0.80640452  0.93275883     0.36400
C2041       C  0.65547213  0.56586239  0.91937076    -0.27800
C2042       C  0.68293299  0.58806151  0.93453605     0.01800
C2043       C  0.68082991  0.59741379  0.96076094     0.29900
C2044       C  0.65186335  0.58607040  0.97069522    -0.19600
C2045       C  0.62441644  0.56411913  0.95544104    -0.29000
C2046       C  0.62629630  0.55348636  0.92984643     0.43900
C2047       C  0.71378943  0.60218572  0.92265166     0.05100
O2048       O  0.70694822  0.61738739  0.97698804    -0.57500
H2049       H  0.65075892  0.59392333  0.99070131     0.18000
O2050       O  0.59996297  0.53220207  0.91428239    -0.64200
H2051       H  0.65667394  0.55848457  0.89914102     0.16500
C2052       C  0.72032064  0.58337772  0.91276701     0.28700
C2053       C  0.75027874  0.59752171  0.90312819    -0.25100
C2054       C  0.77409715  0.63035548  0.90333033    -0.24400
C2055       C  0.76733163  0.64917976  0.91251562     0.40200
C2056       C  0.73731872  0.63503519  0.92190987    -0.26900
O2057       O  0.69792017  0.55118581  0.91313821    -0.58800
H2058       H  0.75513202  0.58277347  0.89598688     0.15800
O2059       O  0.79041381  0.68118922  0.91456701    -0.60200
H2060       H  0.73258271  0.64982157  0.92924016     0.14300
H2061       H  0.59449874  0.51166322  0.91791839     0.46100
H2062       H  0.69710054  0.54492675  0.93263530     0.41500
H2063       H  0.78616971  0.69007218  0.89940362     0.44900
H2064       H  0.70950892  0.60364695  0.98707769     0.36400
loop_ 
_geom_bond_atom_site_label_1 
_geom_bond_atom_site_label_2 
_geom_bond_distance 
_geom_bond_site_symmetry_2 
_ccdc_geom_bond_type 
C1            C2   1.544       .  S
C1            C7   1.536       .  S
C1            C5   1.544       .  S
C1          C458   1.538       .  S
C2            H9   1.081       .  S
C2            C3   1.362       .  D
C3            C4   1.529       .  S
C3          C482   1.473       .  S
C4            C8   1.535       .  S
C4            C6   1.538       .  S
C4           H10   1.109       .  S
C5           H11   1.086       .  S
C5            C6   1.370       .  D
C6          C506   1.486       .  S
C7           H12   1.086       .  S
C7            C8   1.367       .  D
C8          C434   1.484       .  S
C13          C14   1.546       .  S
C13          C19   1.541       .  S
C13          C17   1.541       .  S
C13         C362   1.538       .  S
C14          H21   1.080       .  S
C14          C15   1.362       .  D
C15          C16   1.532       .  S
C15         C410   1.476       .  S
C16          C20   1.536       .  S
C16          C18   1.537       .  S
C16          H22   1.111       .  S
C17          H23   1.086       .  S
C17          C18   1.366       .  D
C18         C386   1.481       .  S
C19          H24   1.086       .  S
C19          C20   1.368       .  D
C20         C425   1.482       .  S
C25          C26   1.542       .  S
C25          C31   1.527       .  S
C25          C29   1.541       .  S
C25         C338   1.531       .  S
C26          H33   1.086       .  S
C26          C27   1.369       .  D
C27          C28   1.542       .  S
C27         C314   1.484       .  S
C28          C32   1.542       .  S
C28          C30   1.537       .  S
C28          H34   1.111       .  S
C29          H35   1.082       .  S
C29          C30   1.363       .  D
C30         C281   1.481       .  S
C31          H36   1.087       .  S
C31          C32   1.362       .  D
C32         C257   1.477       .  S
C37          C38   1.536       .  S
C37          C43   1.536       .  S
C37          C41   1.551       .  S
C37         C209   1.535       .  S
C38          H45   1.086       .  S
C38          C39   1.364       .  D
C39          C40   1.538       .  S
C39         C242   1.482       .  S
C40          C44   1.539       .  S
C40          C42   1.534       .  S
C40          H46   1.111       .  S
C41          H47   1.081       .  S
C41          C42   1.367       .  D
C42         C185   1.482       .  S
C43          H48   1.086       .  S
C43          C44   1.365       .  D
C44         C266   1.481       .  S
Zr49         O50   2.438       .  S
Zr49         O51   2.427   1_556  S
Zr49        O568   2.437       .  S
Zr49       O1087   2.420   1_455  S
Zr49        O573   2.377   1_556  S
Zr49       O1090   2.386   1_456  S
Zr49        O575   2.399       .  S
Zr49       O1092   2.399   1_455  S
O50         H106   0.991       .  S
O50         H630   0.990       .  S
O51          C71   1.283       .  A
O52        Zr565   2.429   1_545  S
O52          C73   1.283       .  A
O53         Zr63   2.422   1_556  S
O53          C72   1.283       .  A
O54         Zr62   2.428       .  S
O54          C73   1.284       .  A
O55       Zr1081   2.439       .  S
O55          C72   1.286       .  A
O56       Zr1612   2.410       .  S
O56          C71   1.280       .  A
O57         Zr62   2.386   1_554  S
O57        Zr565   2.379   1_544  S
O57       Zr1096   2.377   1_545  S
O58         Zr63   2.385       .  S
O58       Zr1081   2.384   1_554  S
O58        Zr580   2.380       .  S
O58          H93   0.966       .  S
O59         Zr62   2.395       .  S
O59        Zr565   2.407   1_545  S
O59       Zr1111   2.395   1_455  S
O59          H96   0.967       .  S
O60         Zr63   2.388   1_556  S
O60       Zr1081   2.393       .  S
O60        Zr595   2.392       .  S
Zr61         O86   2.442       .  S
Zr61         O80   2.435   1_554  S
Zr61         O88   2.450       .  S
Zr61         O76   2.451       .  S
Zr61         O69   2.382   1_554  S
Zr61         O70   2.381   1_554  S
Zr61        O583   2.407   1_545  S
Zr61       O1100   2.410       .  S
Zr62         O81   2.440       .  S
Zr62         O74   2.437   1_556  S
Zr62         O75   2.420   1_556  S
Zr62         O68   2.396   1_556  S
Zr62       O1101   2.393       .  S
Zr63         O65   2.434   1_554  S
Zr63         O87   2.437       .  S
Zr63         O89   2.423       .  S
Zr63         O67   2.390       .  S
Zr63        O586   2.387   1_554  S
Zr64         O91   2.436   1_565  S
Zr64        O606   2.438       .  S
Zr64       O1098   2.436   1_565  S
Zr64       O1604   2.431       .  S
Zr64       O1089   2.374   1_565  S
Zr64        O574   2.373       .  S
Zr64        O583   2.399       .  S
Zr64       O1100   2.396   1_565  S
O65         H102   0.990       .  S
O66       Zr1096   2.437   1_545  S
O66          H97   0.990       .  S
O66         H111   0.990       .  S
O67        Zr577   2.405       .  S
O67        Zr580   2.398       .  S
O68       Zr1093   2.406   1_455  S
O68       Zr1096   2.391   1_545  S
O68          H94   0.967       .  S
O69         Zr79   2.375       .  S
O69       Zr1094   2.392       .  S
O70         Zr79   2.375       .  S
O70        Zr579   2.395   1_545  S
O70         H611   0.966   1_545  S
C71         C329   1.480       .  S
C72         C473   1.490       .  S
C73         C497   1.477       .  S
O74         H110   0.990       .  S
O75          C77   1.283       .  A
O76        C1109   1.288       .  A
C77        O1108   1.286       .  A
C77         C290   1.483       .  S
O78         Zr79   2.439       .  S
O78         H107   0.990       .  S
Zr79       O1114   2.440       .  S
Zr79        O599   2.439   1_545  S
Zr79         O84   2.429       .  S
Zr79       O1091   2.396       .  S
Zr79        O576   2.398   1_545  S
O80          C85   1.284       .  A
O81          H98   0.991       .  S
O81         H113   0.990       .  S
O82       Zr1111   2.436   1_455  S
O82        H1131   0.989       .  S
O83        Zr595   2.437       .  S
O83         H112   0.990       .  S
O83         H619   0.990       .  S
O84          C85   1.283       .  A
C85         C449   1.480       .  S
O86         H105   0.990       .  S
O86         H109   0.990       .  S
O87         H101   0.990       .  S
O87         H108   0.990       .  S
O88         C608   1.288   1_545  A
O89          C92   1.283       .  A
O90        Zr580   2.435       .  S
O90         H100   0.991       .  S
O91         H104   0.990       .  S
C92         O604   1.287       .  A
C92         C305   1.479       .  S
H95         O586   0.967       .  S
H99        O1114   0.990       .  S
H103        O599   0.990   1_545  S
H114        O566   0.990       .  S
Zr115       O116   2.443       .  S
Zr115       O117   2.447       .  S
Zr115       O118   2.435   1_545  S
Zr115       O121   2.428       .  S
Zr115       O123   2.381   1_545  S
Zr115       O124   2.380       .  S
Zr115       O641   2.409   1_545  S
Zr115      O1158   2.408       .  S
O116        H172   0.990       .  S
O116        H180   0.991       .  S
O117        C137   1.288       .  A
O118        C655   1.285       .  A
O119       Zr129   2.416       .  S
O119        C138   1.283       .  A
O120       Zr128   2.434       .  S
O120        C139   1.285       .  A
O121       C1170   1.284       .  A
O122       Zr130   2.420       .  S
O122        C137   1.281       .  A
O123       Zr130   2.378   1_565  S
O123       Zr644   2.395       .  S
O124       Zr130   2.373       .  S
O124      Zr1161   2.385       .  S
O124       H1191   0.966       .  S
O125       Zr128   2.396       .  S
O125       Zr145   2.396       .  S
O125       Zr631   2.404       .  S
O125        H162   0.967       .  S
O126       Zr129   2.388       .  S
O126      Zr1147   2.403   1_455  S
O126      Zr1693   2.400   1_445  S
Zr127       O152   2.445       .  S
Zr127       O146   2.422       .  S
Zr127       O670   2.429       .  S
Zr127      O1174   2.436   1_455  S
Zr127       O649   2.397       .  S
Zr127      O1166   2.397   1_455  S
Zr127      O1167   2.378   1_455  S
Zr127       O652   2.383       .  S
Zr128       O147   2.437       .  S
Zr128       O140   2.435       .  S
Zr128       O141   2.432       .  S
Zr128       O134   2.394       .  S
Zr128       O135   2.387       .  S
Zr128       O639   2.391       .  S
Zr129       O131   2.436       .  S
Zr129       O153   2.437       .  S
Zr129       O155   2.402       .  S
Zr129       O133   2.389       .  S
Zr129       O136   2.390       .  S
Zr129      O1156   2.377   1_455  S
Zr130       O157   2.435       .  S
Zr130      O1188   2.434       .  S
Zr130       O648   2.437   1_545  S
Zr130      O1165   2.393       .  S
Zr130       O650   2.392   1_545  S
O131        H168   0.991       .  S
O132       Zr646   2.437       .  S
O132        H177   0.990       .  S
O132        H679   0.990       .  S
O133       Zr643   2.399   1_545  S
O133      Zr1162   2.390   1_455  S
O134      Zr1159   2.405       .  S
O134       Zr646   2.392       .  S
O134        H160   0.967       .  S
O135       Zr145   2.372       .  S
O135      Zr1159   2.379       .  S
O136       Zr643   2.385   1_545  S
O136      Zr1693   2.370   1_445  S
O136        H161   0.966       .  S
C137        C353   1.494       .  S
C138       O1153   1.285   1_455  A
C138        C233   1.486       .  S
C139        O634   1.286       .  A
C139        C194   1.485       .  S
O140        H176   0.990       .  S
O141        C143   1.285       .  A
O142      Zr1159   2.429       .  S
O142        C143   1.285       .  A
C143        C377   1.474       .  S
O144       Zr661   2.437   1_545  S
O144        H689   0.990   1_545  S
Zr145       O148   2.437       .  S
Zr145       O660   2.436       .  S
Zr145      O1697   2.437       .  S
Zr145      O1182   2.425       .  S
Zr145      O1674   2.392       .  S
Zr145      O1684   2.373       .  S
O146        C151   1.283       .  A
O147        H164   0.990       .  S
O147        H179   0.990       .  S
O148        H165   0.990       .  S
O149      Zr1693   2.439   1_445  S
O149        H169   0.990       .  S
O149        H178   0.990       .  S
O150      Zr1177   2.432   1_455  S
O150        C151   1.285       .  A
C151        C218   1.490       .  S
O152        H687   0.991       .  S
O152       H1207   0.990       .  S
O153        H167   0.990       .  S
O153        H174   0.990       .  S
O154       Zr643   2.436   1_545  S
O154        C158   1.285       .  A
O155        C158   1.279       .  A
O156      Zr1162   2.435   1_455  S
O156       H1198   0.990       .  S
O157        H686   0.990       .  S
C158        C401   1.483       .  S
H159       O1156   0.966       .  S
H163        O648   0.990   1_545  S
H166       O1188   0.990       .  S
H170        O673   0.990       .  S
H171        O668   0.990       .  S
H173        O660   0.990       .  S
H175       O1184   0.990       .  S
C181        C182   1.407       .  A
C181        C186   1.402       .  A
C181        H191   1.083       .  S
C182        C187   1.492       .  S
C182        C183   1.412       .  A
C183        C184   1.402       .  A
C183        O188   1.372       .  S
C184        C185   1.401       .  A
C184        H189   1.084       .  S
C185        C186   1.407       .  A
C186        O190   1.371       .  S
C187        C192   1.411       .  A
C187        C196   1.407       .  A
O188        H204   0.992       .  S
O190        H201   0.992       .  S
C192        C193   1.401       .  A
C192        O197   1.372       .  S
C193        C194   1.406       .  A
C193        H198   1.084       .  S
C194        C195   1.410       .  A
C195        C196   1.403       .  A
C195        O199   1.372       .  S
C196        H200   1.083       .  S
O197        H202   0.992       .  S
O199        H203   0.991       .  S
C205        C206   1.398       .  A
C205        C210   1.401       .  A
C205        H215   1.084       .  S
C206        C211   1.477       .  S
C206        C207   1.403       .  A
C207        C208   1.398       .  A
C207        O212   1.372       .  S
C208        C209   1.412       .  A
C208        H213   1.076       .  S
C209        C210   1.419       .  A
C210        O214   1.373       .  S
C211        C216   1.403       .  A
C211        C220   1.400       .  A
O212        H228   0.992       .  S
O214        H225   0.992       .  S
C216        C217   1.400       .  A
C216        O221   1.372       .  S
C217        C218   1.410       .  A
C217        H222   1.083       .  S
C218        C219   1.417       .  A
C219        C220   1.399       .  A
C219        O223   1.372       .  S
C220        H224   1.084       .  S
O221        H742   0.991       .  S
O223       H1259   0.992       .  S
H226        O737   0.991       .  S
H227       O1255   0.991       .  S
C229        C230   1.402       .  A
C229        C234   1.402       .  A
C229        H239   1.084       .  S
C230        C235   1.475       .  S
C230        C231   1.403       .  A
C231        C232   1.395       .  A
C231        O236   1.372       .  S
C232        C233   1.409       .  A
C232        H237   1.083       .  S
C233        C234   1.414       .  A
C234        O238   1.372   1_455  S
C235        C240   1.405       .  A
C235        C244   1.401       .  A
O236        H252   0.992       .  S
O238        H249   0.992       .  S
C240        C241   1.401       .  A
C240        O245   1.372       .  S
C241        C242   1.404       .  A
C241        H246   1.083       .  S
C242        C243   1.411       .  A
C243        C244   1.399       .  A
C243        O247   1.372       .  S
C244        H248   1.084       .  S
O245        H250   0.992       .  S
O247        H251   0.992       .  S
C253        C254   1.404       .  A
C253        C258   1.398       .  A
C253        H263   1.083       .  S
C254        C259   1.484       .  S
C254        C255   1.410       .  A
C255        C256   1.403       .  A
C255        O260   1.371       .  S
C256        C257   1.402       .  A
C256        H261   1.083       .  S
C257        C258   1.408       .  A
C258        O262   1.372       .  S
C259        C264   1.409       .  A
C259        C268   1.405       .  A
O260        H276   0.991       .  S
O262        H273   0.992       .  S
C264        C265   1.402       .  A
C264        O269   1.372       .  S
C265        C266   1.402       .  A
C265        H270   1.084       .  S
C266        C267   1.409       .  A
C267        C268   1.401       .  A
C267        O271   1.372       .  S
C268        H272   1.084       .  S
O269        H274   0.992       .  S
O271        H275   0.992       .  S
C277        C278   1.398       .  A
C277        C282   1.392       .  A
C277        H287   1.084       .  S
C278        C283   1.473       .  S
C278        C279   1.407       .  A
C279        C280   1.403       .  A
C279        O284   1.372       .  S
C280        C281   1.404       .  A
C280        H285   1.083       .  S
C281        C282   1.412       .  A
C282        O286   1.372       .  S
C283        C288   1.405       .  A
C283        C292   1.401       .  A
O284        H300   0.992       .  S
O286        H297   0.991       .  S
C288        C289   1.398       .  A
C288        O293   1.372       .  S
C289        C290   1.407       .  A
C289       H1326   1.083       .  S
C290        C291   1.414       .  A
C291        C292   1.397       .  A
C291        O295   1.372       .  S
C292        H296   1.084       .  S
O293       H1330   0.992       .  S
H294       C1321   1.083       .  S
O295        H299   0.992       .  S
H298       O1325   0.992       .  S
C301        C302   1.408       .  A
C301        C306   1.403       .  A
C301        H311   1.083       .  S
C302        C307   1.491       .  S
C302        C303   1.410       .  A
C303        C304   1.399       .  A
C303        O308   1.371       .  S
C304        C305   1.404       .  A
C304        H309   1.084       .  S
C305        C306   1.408       .  A
C306        O310   1.372       .  S
C307        C312   1.411       .  A
C307        C316   1.406       .  A
O308        H324   0.992       .  S
O310        H837   0.992       .  S
C312        C313   1.403       .  A
C312        O317   1.372       .  S
C313        C314   1.403       .  A
C313        H318   1.084       .  S
C314        C315   1.407       .  A
C315        C316   1.402       .  A
C315        O319   1.372       .  S
C316        H320   1.083       .  S
O317        H322   0.992       .  S
O319        H323   0.991       .  S
H321        O826   0.992   1_556  S
C325        C326   1.405       .  A
C325        C330   1.399       .  A
C325        H335   1.083       .  S
C326        C331   1.480       .  S
C326        C327   1.406       .  A
C327        C328   1.395       .  A
C327        O332   1.372       .  S
C328        C329   1.407       .  A
C328        H333   1.084       .  S
C329        C330   1.411       .  A
C330        O334   1.372   1_554  S
C331        C336   1.404       .  A
C331        C340   1.402       .  A
O332        H348   0.992       .  S
O334        H345   0.992   1_556  S
C336        C337   1.396       .  A
C336        O341   1.373       .  S
C337        C338   1.412       .  A
C337        H342   1.079       .  S
C338        C339   1.415       .  A
C339        C340   1.400       .  A
C339        O343   1.371       .  S
C340        H344   1.083       .  S
O341        H346   0.992       .  S
O343        H347   0.992       .  S
C349        C350   1.400       .  A
C349        C354   1.401       .  A
C349        H359   1.084       .  S
C350        C355   1.488       .  S
C350        C351   1.410       .  A
C351        C352   1.404       .  A
C351        O356   1.372       .  S
C352        C353   1.407       .  A
C352        H357   1.083       .  S
C353        C354   1.418       .  A
C354        O358   1.371       .  S
C355        C360   1.404       .  A
C355        C364   1.403       .  A
O356        H372   0.992       .  S
O358        H369   0.992       .  S
C360        C361   1.398       .  A
C360        O365   1.372       .  S
C361        C362   1.413       .  A
C361        H366   1.075       .  S
C362        C363   1.417       .  A
C363        C364   1.405       .  A
C363        O367   1.372       .  S
C364        H368   1.084       .  S
O365        H370   0.992       .  S
O367        H371   0.991       .  S
C373        C374   1.405       .  A
C373        C378   1.398       .  A
C373        H383   1.083       .  S
C374        C379   1.489       .  S
C374        C375   1.412       .  A
C375        C376   1.403       .  A
C375        O380   1.373       .  S
C376        C377   1.403       .  A
C376        H381   1.084       .  S
C377        C378   1.406       .  A
C378        O382   1.370       .  S
C379        C384   1.411       .  A
C379        C388   1.408       .  A
O380        H396   0.992       .  S
O382        H393   0.992       .  S
C384        C385   1.398       .  A
C384        O389   1.371       .  S
C385        C386   1.401       .  A
C385        H390   1.084       .  S
C386        C387   1.408       .  A
C387        C388   1.403       .  A
C387        O391   1.372       .  S
C388        H392   1.084       .  S
O389        H394   0.992       .  S
O391        H395   0.992       .  S
C397        C398   1.398       .  A
C397        C402   1.394       .  A
C397        H407   1.084       .  S
C398        C403   1.474       .  S
C398        C399   1.406       .  A
C399        C400   1.399       .  A
C399        O404   1.371       .  S
C400        C401   1.408       .  A
C400        H405   1.083       .  S
C401        C402   1.416       .  A
C402        O406   1.372       .  S
C403        C408   1.407       .  A
C403        C412   1.403       .  A
O404        H420   0.992       .  S
O406        H417   0.992       .  S
C408        C409   1.396       .  A
C408        O413   1.372       .  S
C409        C410   1.402       .  A
C409        H414   1.084       .  S
C410        C411   1.408       .  A
C411        C412   1.401       .  A
C411        O415   1.372       .  S
C412        H416   1.084       .  S
O413        H418   0.992       .  S
O415        H419   0.992       .  S
C421        C422   1.402       .  A
C421        C426   1.402       .  A
C421        H431   1.083       .  S
C422        C427   1.480       .  S
C422        C423   1.408       .  A
C423        C424   1.400       .  A
C423        O428   1.372       .  S
C424        C425   1.403       .  A
C424        H429   1.084       .  S
C425        C426   1.410       .  A
C426        O430   1.371       .  S
C427        C432   1.407       .  A
C427        C436   1.402       .  A
O428        H444   0.992       .  S
O430        H441   0.992       .  S
C432        C433   1.400       .  A
C432        O437   1.371       .  S
C433        C434   1.404       .  A
C433        H438   1.084       .  S
C434        C435   1.411       .  A
C435        C436   1.401       .  A
C435        O439   1.372       .  S
C436        H440   1.084       .  S
O437        H442   0.992       .  S
O439        H443   0.991       .  S
C445        C446   1.402       .  A
C445        C450   1.400       .  A
C445        H455   1.084       .  S
C446        C451   1.480       .  S
C446        C447   1.408       .  A
C447        C448   1.402       .  A
C447        O452   1.372       .  S
C448        C449   1.406       .  A
C448        H453   1.083       .  S
C449        C450   1.410       .  A
C450        O454   1.372       .  S
C451        C456   1.402       .  A
C451        C460   1.401       .  A
O452        H468   0.992       .  S
O454        H465   0.992       .  S
C456        C457   1.399       .  A
C456        O461   1.372       .  S
C457        C458   1.414       .  A
C457        H462   1.077       .  S
C458        C459   1.416       .  A
C459        C460   1.403       .  A
C459        O463   1.372       .  S
C460        H464   1.084       .  S
O461        H466   0.992       .  S
O463        H467   0.992       .  S
C469        C470   1.402       .  A
C469        C474   1.401       .  A
C469        H479   1.084       .  S
C470        C475   1.479       .  S
C470        C471   1.405       .  A
C471        C472   1.398       .  A
C471        O476   1.372       .  S
C472        C473   1.410       .  A
C472        H477   1.083       .  S
C473        C474   1.414       .  A
C474        O478   1.371       .  S
C475        C480   1.408       .  A
C475        C484   1.403       .  A
O476        H492   0.992       .  S
O478        H489   0.992       .  S
C480        C481   1.401       .  A
C480        O485   1.371       .  S
C481        C482   1.400       .  A
C481        H486   1.084       .  S
C482        C483   1.407       .  A
C483        C484   1.397       .  A
C483        O487   1.373       .  S
C484        H488   1.084       .  S
O485        H490   0.992       .  S
O487        H491   0.991       .  S
C493        C494   1.406       .  A
C493        C498   1.403       .  A
C493        H503   1.083       .  S
C494        C499   1.487       .  S
C494        C495   1.410       .  A
C495        C496   1.395       .  A
C495        O500   1.372       .  S
C496        C497   1.401       .  A
C496        H501   1.084       .  S
C497        C498   1.411       .  A
C498        O502   1.372       .  S
C499        C504   1.411       .  A
C499        C508   1.403       .  A
O500        H516   0.992       .  S
O502        H513   0.992       .  S
C504        C505   1.401       .  A
C504        O509   1.372       .  S
C505        C506   1.405       .  A
C505        H510   1.083       .  S
C506        C507   1.410       .  A
C507        C508   1.398       .  A
C507        O511   1.372       .  S
C508        H512   1.083       .  S
O509        H514   0.992       .  S
O511        H515   0.992       .  S
C517        C518   1.545       .  S
C517        C523   1.540       .  S
C517        C521   1.538       .  S
C517        C974   1.536       .  S
C518        H525   1.079       .  S
C518        C519   1.360       .  D
C519        C520   1.534       .  S
C519        C998   1.479       .  S
C520        C524   1.538       .  S
C520        C522   1.537       .  S
C520        H526   1.110       .  S
C521        H527   1.086       .  S
C521        C522   1.366       .  D
C522       C1022   1.478       .  S
C523        H528   1.086       .  S
C523        C524   1.369       .  D
C524        C950   1.486       .  S
C529        C530   1.542       .  S
C529        C535   1.537       .  S
C529        C533   1.538       .  S
C529        C878   1.530       .  S
C530        H537   1.080       .  S
C530        C531   1.360       .  D
C531        C532   1.533       .  S
C531        C926   1.473       .  S
C532        C536   1.541       .  S
C532        C534   1.538       .  S
C532        H538   1.111       .  S
C533        H539   1.086       .  S
C533        C534   1.364       .  D
C534        C902   1.480       .  S
C535        H540   1.086       .  S
C535        C536   1.367       .  D
C536        C941   1.481       .  S
C541        C542   1.543       .  S
C541        C547   1.528       .  S
C541        C545   1.543       .  S
C541        C854   1.533       .  S
C542        H549   1.086       .  S
C542        C543   1.370       .  D
C543        C544   1.544       .  S
C543        C830   1.492       .  S
C544        C548   1.542       .  S
C544        C546   1.537       .  S
C544        H550   1.110       .  S
C545        H551   1.081       .  S
C545        C546   1.365       .  D
C546        C797   1.481       .  S
C547        H552   1.087       .  S
C547        C548   1.361       .  D
C548        C773   1.479       .  S
C553        C554   1.538       .  S
C553        C559   1.539       .  S
C553        C557   1.549       .  S
C553        C725   1.540       .  S
C554        H561   1.085       .  S
C554        C555   1.367       .  D
C555        C556   1.536       .  S
C555        C758   1.484       .  S
C556        C560   1.539       .  S
C556        C558   1.529       .  S
C556        H562   1.111       .  S
C557        H563   1.081       .  S
C557        C558   1.364       .  D
C558        C701   1.476       .  S
C559        H564   1.086       .  S
C559        C560   1.368       .  D
C560        C782   1.484       .  S
Zr565       O566   2.439       .  S
Zr565       O567   2.434   1_556  S
Zr565      O1603   2.426   1_455  S
Zr565      O1606   2.385   1_456  S
Zr565      O1608   2.399   1_455  S
O566        H622   0.990       .  S
O567        C587   1.285       .  A
O568        C589   1.285       .  A
O569       Zr579   2.424       .  S
O569        C588   1.284       .  A
O570       Zr578   2.427       .  S
O570        C589   1.283       .  A
O571      Zr1597   2.427       .  S
O571        C588   1.284       .  A
O572      Zr1096   2.415       .  S
O572        C587   1.281       .  A
O573       Zr578   2.387   1_554  S
O573      Zr1612   2.373       .  S
O574      Zr1597   2.379   1_554  S
O574       Zr579   2.380   1_554  S
O574        H609   0.965       .  S
O575       Zr578   2.396       .  S
O575      Zr1627   2.395   1_455  S
O575        H612   0.967       .  S
O576      Zr1597   2.396       .  S
O576       Zr579   2.391       .  S
Zr577       O602   2.443       .  S
Zr577       O596   2.434   1_554  S
Zr577       O604   2.444       .  S
Zr577       O592   2.439       .  S
Zr577      O1616   2.405       .  S
Zr577       O585   2.384   1_554  S
Zr577       O586   2.381   1_554  S
Zr578       O597   2.437       .  S
Zr578       O590   2.435   1_556  S
Zr578       O591   2.423   1_556  S
Zr578       O584   2.397   1_556  S
Zr578      O1617   2.387       .  S
Zr579       O581   2.434       .  S
Zr579       O603   2.437   1_556  S
Zr579       O605   2.414   1_556  S
Zr579       O583   2.390   1_556  S
Zr580       O607   2.436       .  S
Zr580      O1614   2.436       .  S
Zr580      O1088   2.415       .  S
Zr580      O1605   2.374       .  S
Zr580      O1616   2.387       .  S
O581        H618   0.990       .  S
O582      Zr1612   2.436       .  S
O582        H613   0.990       .  S
O582        H627   0.990       .  S
O584      Zr1609   2.406   1_455  S
O584      Zr1612   2.389       .  S
O584        H610   0.967       .  S
O585      Zr1610   2.389       .  S
O585       Zr595   2.374       .  S
O586       Zr595   2.374       .  S
C587        C845   1.489       .  S
C588        C989   1.489       .  S
C589       C1013   1.477       .  S
O590        H626   0.989       .  S
O591        C593   1.284       .  A
O592       C1625   1.287       .  A
C593       O1624   1.284       .  A
C593        C806   1.476       .  S
O594       Zr595   2.435       .  S
O594        H623   0.990       .  S
Zr595      O1630   2.439       .  S
Zr595       O600   2.424       .  S
Zr595      O1607   2.393       .  S
O596        C601   1.286       .  A
O597        H614   0.990       .  S
O597        H629   0.990       .  S
O598      Zr1627   2.436   1_455  S
O598       H1647   0.990       .  S
O599        H628   0.990       .  S
O600        C601   1.282       .  A
C601        C965   1.492       .  S
O602        H621   0.990       .  S
O602        H625   0.990       .  S
O603        H617   0.990       .  S
O603        H624   0.990       .  S
O605        C608   1.281       .  A
O606        H616   0.990       .  S
O607        H620   0.990       .  S
C608        C821   1.477       .  S
H615       O1630   0.990       .  S
Zr631       O632   2.440       .  S
Zr631       O633   2.429       .  S
Zr631       O634   2.444       .  S
Zr631       O637   2.441       .  S
Zr631       O639   2.381       .  S
Zr631       O640   2.384       .  S
Zr631      O1674   2.400       .  S
O632        H688   0.990       .  S
O632        H696   0.991       .  S
O633        C653   1.284       .  A
O635       Zr645   2.427       .  S
O635        C654   1.285       .  A
O636       Zr644   2.438       .  S
O636        C655   1.286       .  A
O637       C1686   1.287       .  A
O638       Zr646   2.412       .  S
O638        C653   1.279       .  A
O639       Zr646   2.376       .  S
O640      Zr1677   2.384       .  S
O640       Zr646   2.373       .  S
O640       H1707   0.967       .  S
O641       Zr644   2.394       .  S
O641       Zr661   2.399       .  S
O641        H678   0.967       .  S
O642      Zr1663   2.401   1_455  S
O642       Zr645   2.390       .  S
O642      Zr1177   2.395   1_455  S
Zr643       O668   2.446       .  S
Zr643       O662   2.428       .  S
Zr643      O1690   2.440   1_455  S
Zr643      O1682   2.404   1_455  S
Zr643      O1683   2.379   1_455  S
Zr644       O663   2.436       .  S
Zr644       O656   2.432       .  S
Zr644       O657   2.432       .  S
Zr644       O650   2.398       .  S
Zr644       O651   2.384       .  S
Zr645       O647   2.435       .  S
Zr645       O669   2.436       .  S
Zr645       O671   2.426       .  S
Zr645      O1672   2.385   1_455  S
Zr645       O649   2.394       .  S
Zr645       O652   2.385       .  S
Zr646      O1704   2.435       .  S
Zr646       O673   2.433       .  S
Zr646      O1681   2.400       .  S
O647        H684   0.990       .  S
O648        H693   0.990       .  S
O649      Zr1678   2.396   1_455  S
O650      Zr1675   2.405       .  S
O650        H676   0.967       .  S
O651      Zr1675   2.380       .  S
O651       Zr661   2.375       .  S
O652      Zr1177   2.374   1_455  S
O652        H677   0.966       .  S
C653        C869   1.485       .  S
C654       O1669   1.285   1_455  A
C654        C749   1.482       .  S
C655        C710   1.481       .  S
O656        H692   0.990       .  S
O657        C659   1.285       .  A
O658      Zr1675   2.445       .  S
O658        C659   1.287       .  A
C659        C893   1.483       .  S
Zr661       O664   2.437       .  S
Zr661      O1181   2.441   1_565  S
Zr661      O1698   2.425       .  S
Zr661      O1158   2.397   1_565  S
Zr661      O1168   2.372   1_565  S
O662        C667   1.283       .  A
O663        H680   0.990       .  S
O663        H695   0.989       .  S
O664        H681   0.990       .  S
O665      Zr1177   2.438   1_455  S
O665        H685   0.990       .  S
O665        H694   0.990       .  S
O666      Zr1693   2.429   1_455  S
O666        C667   1.284       .  A
C667        C734   1.492       .  S
O668       H1723   0.990       .  S
O669        H683   0.990       .  S
O669        H690   0.990       .  S
O670        C674   1.285       .  A
O671        C674   1.284       .  A
O672      Zr1678   2.435   1_455  S
O672       H1714   0.990       .  S
C674        C917   1.487       .  S
H675       O1672   0.966       .  S
H682       O1704   0.989       .  S
H691       O1700   0.990       .  S
C697        C698   1.405       .  A
C697        C702   1.398       .  A
C697        H707   1.084       .  S
C698        C703   1.483       .  S
C698        C699   1.410       .  A
C699        C700   1.404       .  A
C699        O704   1.373       .  S
C700        C701   1.403       .  A
C700        H705   1.084       .  S
C701        C702   1.405       .  A
C702        O706   1.372       .  S
C703        C708   1.408       .  A
C703        C712   1.404       .  A
O704        H720   0.992       .  S
O706        H717   0.992       .  S
C708        C709   1.403       .  A
C708        O713   1.372       .  S
C709        C710   1.406       .  A
C709        H714   1.084       .  S
C710        C711   1.410       .  A
C711        C712   1.400       .  A
C711        O715   1.372       .  S
C712        H716   1.084       .  S
O713        H718   0.992       .  S
O715        H719   0.992       .  S
C721        C722   1.402       .  A
C721        C726   1.404       .  A
C721        H731   1.083       .  S
C722        C727   1.486       .  S
C722        C723   1.404       .  A
C723        C724   1.400       .  A
C723        O728   1.372       .  S
C724        C725   1.414       .  A
C724        H729   1.075       .  S
C725        C726   1.418       .  A
C726        O730   1.373       .  S
C727        C732   1.405       .  A
C727        C736   1.405       .  A
O728        H744   0.992       .  S
O730        H741   0.992       .  S
C732        C733   1.398       .  A
C732        O737   1.372       .  S
C733        C734   1.409       .  A
C733        H738   1.083       .  S
C734        C735   1.416       .  A
C735        C736   1.404       .  A
C735        O739   1.372       .  S
C736        H740   1.084       .  S
O739       H1775   0.992       .  S
H743       O1771   0.992       .  S
C745        C746   1.403       .  A
C745        C750   1.400       .  A
C745        H755   1.084       .  S
C746        C751   1.481       .  S
C746        C747   1.407       .  A
C747        C748   1.401       .  A
C747        O752   1.372       .  S
C748        C749   1.407       .  A
C748        H753   1.084       .  S
C749        C750   1.411       .  A
C750        O754   1.372   1_455  S
C751        C756   1.407       .  A
C751        C760   1.402       .  A
O752        H768   0.992       .  S
O754        H765   0.992       .  S
C756        C757   1.400       .  A
C756        O761   1.371       .  S
C757        C758   1.404       .  A
C757        H762   1.083       .  S
C758        C759   1.411       .  A
C759        C760   1.400       .  A
C759        O763   1.373       .  S
C760        H764   1.084       .  S
O761        H766   0.992       .  S
O763        H767   0.992       .  S
C769        C770   1.403       .  A
C769        C774   1.399       .  A
C769        H779   1.084       .  S
C770        C775   1.485       .  S
C770        C771   1.410       .  A
C771        C772   1.405       .  A
C771        O776   1.371       .  S
C772        C773   1.402       .  A
C772        H777   1.083       .  S
C773        C774   1.407       .  A
C774        O778   1.372       .  S
C775        C780   1.409       .  A
C775        C784   1.404       .  A
O776        H792   0.992       .  S
O778        H789   0.992       .  S
C780        C781   1.404       .  A
C780        O785   1.372       .  S
C781        C782   1.403       .  A
C781        H786   1.084       .  S
C782        C783   1.409       .  A
C783        C784   1.402       .  A
C783        O787   1.372       .  S
C784        H788   1.084       .  S
O785        H790   0.992       .  S
O787        H791   0.992       .  S
C793        C794   1.398       .  A
C793        C798   1.395       .  A
C793        H803   1.084       .  S
C794        C799   1.470       .  S
C794        C795   1.406       .  A
C795        C796   1.401       .  A
C795        O800   1.372       .  S
C796        C797   1.403       .  A
C796        H801   1.083       .  S
C797        C798   1.412       .  A
C798        O802   1.372       .  S
C799        C804   1.405       .  A
C799        C808   1.400       .  A
O800        H816   0.992       .  S
O802        H813   0.991       .  S
C804        C805   1.395       .  A
C804        O809   1.372       .  S
C805        C806   1.405       .  A
C805       H1842   1.084       .  S
C806        C807   1.413       .  A
C807        C808   1.399       .  A
C807        O811   1.372       .  S
C808        H812   1.084       .  S
O809       H1846   0.992       .  S
H810       C1837   1.083       .  S
O811        H815   0.992       .  S
H814       O1841   0.992       .  S
C817        C818   1.409       .  A
C817        C822   1.404       .  A
C817        H827   1.082       .  S
C818        C823   1.497       .  S
C818        C819   1.413       .  A
C819        C820   1.402       .  A
C819        O824   1.372       .  S
C820        C821   1.403       .  A
C820        H825   1.084       .  S
C821        C822   1.406       .  A
C822        O826   1.372       .  S
C823        C828   1.412       .  A
C823        C832   1.407       .  A
O824        H840   0.992       .  S
C828        C829   1.405       .  A
C828        O833   1.372       .  S
C829        C830   1.405       .  A
C829        H834   1.084       .  S
C830        C831   1.410       .  A
C831        C832   1.404       .  A
C831        O835   1.371       .  S
C832        H836   1.083       .  S
O833        H838   0.992       .  S
O835        H839   0.991       .  S
C841        C842   1.403       .  A
C841        C846   1.400       .  A
C841        H851   1.084       .  S
C842        C847   1.480       .  S
C842        C843   1.405       .  A
C843        C844   1.399       .  A
C843        O848   1.372       .  S
C844        C845   1.411       .  A
C844        H849   1.083       .  S
C845        C846   1.414       .  A
C846        O850   1.372   1_554  S
C847        C852   1.404       .  A
C847        C856   1.401       .  A
O848        H864   0.992       .  S
O850        H861   0.992       .  S
C852        C853   1.399       .  A
C852        O857   1.373       .  S
C853        C854   1.413       .  A
C853        H858   1.077       .  S
C854        C855   1.416       .  A
C855        C856   1.401       .  A
C855        O859   1.372       .  S
C856        H860   1.083       .  S
O857        H862   0.992       .  S
O859        H863   0.992       .  S
C865        C866   1.400       .  A
C865        C870   1.395       .  A
C865        H875   1.084       .  S
C866        C871   1.477       .  S
C866        C867   1.407       .  A
C867        C868   1.400       .  A
C867        O872   1.373       .  S
C868        C869   1.407       .  A
C868        H873   1.083       .  S
C869        C870   1.416       .  A
C870        O874   1.372       .  S
C871        C876   1.404       .  A
C871        C880   1.400       .  A
O872        H888   0.992       .  S
O874        H885   0.992       .  S
C876        C877   1.395       .  A
C876        O881   1.372       .  S
C877        C878   1.413       .  A
C877        H882   1.074       .  S
C878        C879   1.416       .  A
C879        C880   1.398       .  A
C879        O883   1.372       .  S
C880        H884   1.084       .  S
O881        H886   0.992       .  S
O883        H887   0.991       .  S
C889        C890   1.405       .  A
C889        C894   1.403       .  A
C889        H899   1.083       .  S
C890        C895   1.487       .  S
C890        C891   1.408       .  A
C891        C892   1.402       .  A
C891        O896   1.373       .  S
C892        C893   1.406       .  A
C892        H897   1.084       .  S
C893        C894   1.410       .  A
C894        O898   1.372       .  S
C895        C900   1.410       .  A
C895        C904   1.405       .  A
O896        H912   0.992       .  S
O898        H909   0.992       .  S
C900        C901   1.400       .  A
C900        O905   1.371       .  S
C901        C902   1.401       .  A
C901        H906   1.084       .  S
C902        C903   1.408       .  A
C903        C904   1.404       .  A
C903        O907   1.372       .  S
C904        H908   1.083       .  S
O905        H910   0.992       .  S
O907        H911   0.992       .  S
C913        C914   1.401       .  A
C913        C918   1.397       .  A
C913        H923   1.084       .  S
C914        C919   1.479       .  S
C914        C915   1.406       .  A
C915        C916   1.400       .  A
C915        O920   1.372       .  S
C916        C917   1.409       .  A
C916        H921   1.083       .  S
C917        C918   1.415       .  A
C918        O922   1.371       .  S
C919        C924   1.407       .  A
C919        C928   1.406       .  A
O920        H936   0.992       .  S
O922        H933   0.992       .  S
C924        C925   1.395       .  A
C924        O929   1.372       .  S
C925        C926   1.401       .  A
C925        H930   1.084       .  S
C926        C927   1.406       .  A
C927        C928   1.402       .  A
C927        O931   1.372       .  S
C928        H932   1.084       .  S
O929        H934   0.992       .  S
O931        H935   0.992       .  S
C937        C938   1.402       .  A
C937        C942   1.400       .  A
C937        H947   1.083       .  S
C938        C943   1.482       .  S
C938        C939   1.409       .  A
C939        C940   1.402       .  A
C939        O944   1.372       .  S
C940        C941   1.405       .  A
C940        H945   1.084       .  S
C941        C942   1.407       .  A
C942        O946   1.371       .  S
C943        C948   1.408       .  A
C943        C952   1.402       .  A
O944        H960   0.992       .  S
O946        H957   0.992       .  S
C948        C949   1.401       .  A
C948        O953   1.372       .  S
C949        C950   1.403       .  A
C949        H954   1.084       .  S
C950        C951   1.412       .  A
C951        C952   1.403       .  A
C951        O955   1.371       .  S
C952        H956   1.084       .  S
O953        H958   0.992       .  S
O955        H959   0.992       .  S
C961        C962   1.401       .  A
C961        C966   1.398       .  A
C961        H971   1.084       .  S
C962        C967   1.484       .  S
C962        C963   1.408       .  A
C963        C964   1.403       .  A
C963        O968   1.373       .  S
C964        C965   1.408       .  A
C964        H969   1.083       .  S
C965        C966   1.417       .  A
C966        O970   1.372       .  S
C967        C972   1.403       .  A
C967        C976   1.403       .  A
O968        H984   0.992       .  S
O970        H981   0.992       .  S
C972        C973   1.398       .  A
C972        O977   1.373       .  S
C973        C974   1.413       .  A
C973        H978   1.074       .  S
C974        C975   1.416       .  A
C975        C976   1.403       .  A
C975        O979   1.373       .  S
C976        H980   1.084       .  S
O977        H982   0.992       .  S
O979        H983   0.991       .  S
C985        C986   1.401       .  A
C985        C990   1.400       .  A
C985        H995   1.083       .  S
C986        C991   1.482       .  S
C986        C987   1.408       .  A
C987        C988   1.399       .  A
C987        O992   1.372       .  S
C988        C989   1.408       .  A
C988        H993   1.083       .  S
C989        C990   1.415       .  A
C990        O994   1.371       .  S
C991        C996   1.410       .  A
C991       C1000   1.401       .  A
O992       H1008   0.992       .  S
O994       H1005   0.992       .  S
C996        C997   1.404       .  A
C996       O1001   1.372       .  S
C997        C998   1.401       .  A
C997       H1002   1.084       .  S
C998        C999   1.409       .  A
C999       C1000   1.397       .  A
C999       O1003   1.373       .  S
C1000      H1004   1.084       .  S
O1001      H1006   0.992       .  S
O1003      H1007   0.992       .  S
C1009      C1010   1.402       .  A
C1009      C1014   1.400       .  A
C1009      H1019   1.084       .  S
C1010      C1015   1.480       .  S
C1010      C1011   1.409       .  A
C1011      C1012   1.399       .  A
C1011      O1016   1.372       .  S
C1012      C1013   1.404       .  A
C1012      H1017   1.084       .  S
C1013      C1014   1.409       .  A
C1014      O1018   1.372       .  S
C1015      C1020   1.409       .  A
C1015      C1024   1.402       .  A
O1016      H1032   0.992       .  S
O1018      H1029   0.992       .  S
C1020      C1021   1.399       .  A
C1020      O1025   1.372       .  S
C1021      C1022   1.404       .  A
C1021      H1026   1.084       .  S
C1022      C1023   1.408       .  A
C1023      C1024   1.397       .  A
C1023      O1027   1.371       .  S
C1024      H1028   1.084       .  S
O1025      H1030   0.992       .  S
O1027      H1031   0.992       .  S
C1033      C1034   1.543       .  S
C1033      C1039   1.535       .  S
C1033      C1037   1.538       .  S
C1033      C1490   1.537       .  S
C1034      H1041   1.082       .  S
C1034      C1035   1.363       .  D
C1035      C1036   1.533       .  S
C1035      C1514   1.474       .  S
C1036      C1040   1.539       .  S
C1036      C1038   1.544       .  S
C1036      H1042   1.108       .  S
C1037      H1043   1.086       .  S
C1037      C1038   1.371       .  D
C1038      C1538   1.490       .  S
C1039      H1044   1.086       .  S
C1039      C1040   1.367       .  D
C1040      C1466   1.491       .  S
C1045      C1046   1.543       .  S
C1045      C1051   1.537       .  S
C1045      C1049   1.538       .  S
C1045      C1394   1.533       .  S
C1046      H1053   1.080       .  S
C1046      C1047   1.363       .  D
C1047      C1048   1.534       .  S
C1047      C1442   1.478       .  S
C1048      C1052   1.541       .  S
C1048      C1050   1.536       .  S
C1048      H1054   1.110       .  S
C1049      H1055   1.086       .  S
C1049      C1050   1.362       .  D
C1050      C1418   1.473       .  S
C1051      H1056   1.086       .  S
C1051      C1052   1.368       .  D
C1052      C1457   1.485       .  S
C1057      C1058   1.540       .  S
C1057      C1063   1.532       .  S
C1057      C1061   1.544       .  S
C1057      C1370   1.533       .  S
C1058      H1065   1.086       .  S
C1058      C1059   1.368       .  D
C1059      C1060   1.539       .  S
C1059      C1346   1.482       .  S
C1060      C1064   1.539       .  S
C1060      C1062   1.536       .  S
C1060      H1066   1.111       .  S
C1061      H1067   1.079       .  S
C1061      C1062   1.365       .  D
C1062      C1313   1.485       .  S
C1063      H1068   1.086       .  S
C1063      C1064   1.362       .  D
C1064      C1289   1.476       .  S
C1069      C1070   1.536       .  S
C1069      C1075   1.539       .  S
C1069      C1073   1.548       .  S
C1069      C1241   1.538       .  S
C1070      H1077   1.086       .  S
C1070      C1071   1.365       .  D
C1071      C1072   1.542       .  S
C1071      C1274   1.489       .  S
C1072      C1076   1.541       .  S
C1072      C1074   1.537       .  S
C1072      H1078   1.111       .  S
C1073      H1079   1.081       .  S
C1073      C1074   1.365       .  D
C1074      C1217   1.483       .  S
C1075      H1080   1.086       .  S
C1075      C1076   1.368       .  D
C1076      C1298   1.486       .  S
Zr1081     O1082   2.442       .  S
Zr1081     O1083   2.420   1_556  S
Zr1081     O1600   2.425       .  S
Zr1081     O1605   2.382   1_556  S
Zr1081     O1607   2.401       .  S
O1082      H1138   0.991       .  S
O1082      H1662   0.990       .  S
O1083      C1103   1.282       .  A
O1084     Zr1597   2.428   1_545  S
O1084      C1105   1.283       .  A
O1085     Zr1095   2.424   1_556  S
O1085      C1104   1.285       .  A
O1086     Zr1094   2.420       .  S
O1086      C1105   1.283       .  A
O1087      C1104   1.283       .  A
O1088      C1103   1.281       .  A
O1089     Zr1597   2.379   1_544  S
O1089     Zr1094   2.384   1_554  S
O1090     Zr1095   2.390       .  S
O1090     Zr1612   2.373   1_655  S
O1090      H1125   0.965       .  S
O1091     Zr1597   2.402   1_545  S
O1091     Zr1094   2.392       .  S
O1091      H1128   0.967       .  S
O1092     Zr1095   2.392   1_556  S
O1092     Zr1627   2.390       .  S
Zr1093     O1118   2.441       .  S
Zr1093     O1112   2.443   1_554  S
Zr1093     O1120   2.446       .  S
Zr1093     O1108   2.433   1_655  S
Zr1093     O1615   2.403   1_545  S
Zr1093     O1101   2.387   1_654  S
Zr1093     O1102   2.384   1_554  S
Zr1094     O1113   2.434       .  S
Zr1094     O1106   2.437   1_556  S
Zr1094     O1107   2.412   1_556  S
Zr1094     O1100   2.398   1_556  S
Zr1095     O1097   2.436   1_554  S
Zr1095     O1119   2.435       .  S
Zr1095     O1121   2.432       .  S
Zr1095     O1099   2.387       .  S
Zr1095     O1618   2.383   1_554  S
Zr1096     O1638   2.434   1_455  S
Zr1096     O1123   2.438   1_465  S
Zr1096     O1606   2.376   1_455  S
Zr1096     O1615   2.396   1_455  S
O1097      H1134   0.990       .  S
O1098      H1129   0.990       .  S
O1098      H1143   0.990       .  S
O1099     Zr1609   2.397       .  S
O1099     Zr1612   2.391   1_655  S
O1100      H1126   0.967       .  S
O1101     Zr1111   2.378   1_455  S
O1102     Zr1611   2.389   1_545  S
O1102     Zr1111   2.375       .  S
O1102      H1643   0.967       .  S
C1103      C1361   1.484       .  S
C1104      C1505   1.486       .  S
C1105      C1529   1.478       .  S
O1106      H1142   0.990       .  S
O1107      C1109   1.281       .  A
C1109      C1322   1.486       .  S
O1110     Zr1111   2.434       .  S
O1110      H1139   0.990       .  S
Zr1111     O1631   2.437   1_545  S
Zr1111     O1116   2.416       .  S
Zr1111     O1608   2.390   1_545  S
O1112      C1117   1.288       .  A
O1113      H1130   0.990       .  S
O1113      H1145   0.990       .  S
O1115     Zr1627   2.439       .  S
O1115      H1651   0.990       .  S
O1115      H1144   0.990       .  S
O1116      C1117   1.281       .  A
C1117      C1481   1.493       .  S
O1118      H1137   0.990       .  S
O1118      H1141   0.991       .  S
O1119      H1133   0.990       .  S
O1119      H1140   0.989       .  S
O1120      C1640   1.286   1_545  A
O1121      C1124   1.284       .  A
O1122     Zr1612   2.436   1_655  S
O1122      H1132   0.990       .  S
O1123      H1136   0.990       .  S
C1124      O1636   1.284       .  A
C1124      C1337   1.478       .  S
H1127      O1618   0.967       .  S
H1135      O1631   0.990       .  S
H1146      O1598   0.990       .  S
Zr1147     O1148   2.439       .  S
Zr1147     O1149   2.435       .  S
Zr1147     O1150   2.440   1_545  S
Zr1147     O1153   2.432       .  S
Zr1147     O1155   2.382   1_545  S
Zr1147     O1156   2.384       .  S
Zr1147     O1673   2.399   1_545  S
O1148      H1204   0.990       .  S
O1148      H1212   0.991       .  S
O1149      C1169   1.286       .  A
O1150      C1687   1.286       .  A
O1151     Zr1161   2.438       .  S
O1151      C1170   1.287       .  A
O1152     Zr1160   2.420       .  S
O1152      C1171   1.283       .  A
O1154     Zr1162   2.417       .  S
O1154      C1169   1.281       .  A
O1155     Zr1676   2.387       .  S
O1155     Zr1162   2.380   1_565  S
O1156     Zr1162   2.376       .  S
O1157     Zr1663   2.400       .  S
O1157     Zr1160   2.395       .  S
O1157     Zr1177   2.395       .  S
O1157      H1194   0.967       .  S
O1158     Zr1161   2.388       .  S
Zr1159     O1184   2.444       .  S
Zr1159     O1178   2.451       .  S
Zr1159     O1702   2.434       .  S
Zr1159     O1681   2.410       .  S
Zr1159     O1684   2.381       .  S
Zr1160     O1179   2.432       .  S
Zr1160     O1172   2.433       .  S
Zr1160     O1173   2.418       .  S
Zr1160     O1671   2.388       .  S
Zr1160     O1166   2.397       .  S
Zr1160     O1167   2.381       .  S
Zr1161     O1163   2.436       .  S
Zr1161     O1185   2.435       .  S
Zr1161     O1187   2.427       .  S
Zr1161     O1165   2.393       .  S
Zr1161     O1168   2.386       .  S
Zr1162     O1189   2.434       .  S
Zr1162     O1680   2.436   1_545  S
Zr1162     O1682   2.388   1_545  S
O1163      H1200   0.990       .  S
O1164     Zr1678   2.439       .  S
O1164      H1711   0.990       .  S
O1164      H1209   0.990       .  S
O1165     Zr1675   2.401   1_545  S
O1166     Zr1678   2.382       .  S
O1166      H1192   0.967       .  S
O1167     Zr1177   2.372       .  S
O1168     Zr1675   2.387   1_545  S
O1168      H1193   0.966       .  S
C1169      C1385   1.489       .  S
C1170      C1265   1.490       .  S
C1171      O1666   1.286       .  A
C1171      C1226   1.482       .  S
O1172      H1208   0.990       .  S
O1173      C1175   1.283       .  A
O1174      C1175   1.286       .  A
C1175      C1409   1.479       .  S
O1176     Zr1693   2.439   1_545  S
O1176      H1721   0.991   1_545  S
Zr1177     O1692   2.439       .  S
Zr1177     O1180   2.435       .  S
O1178      C1183   1.288       .  A
O1179      H1196   0.990       .  S
O1179      H1211   0.990       .  S
O1180      H1197   0.990       .  S
O1181      H1201   0.990       .  S
O1181      H1210   0.989       .  S
O1182      C1183   1.284       .  A
C1183      C1250   1.494       .  S
O1184      H1719   0.990       .  S
O1185      H1199   0.990       .  S
O1185      H1206   0.990       .  S
O1186     Zr1675   2.435   1_545  S
O1186      C1190   1.286       .  A
O1187      C1190   1.284       .  A
O1189      H1718   0.990       .  S
C1190      C1433   1.488       .  S
H1195      O1680   0.990   1_545  S
H1202      O1705   0.990       .  S
H1203      O1700   0.990       .  S
H1205      O1692   0.990       .  S
C1213      C1214   1.407       .  A
C1213      C1218   1.401       .  A
C1213      H1223   1.084       .  S
C1214      C1219   1.492       .  S
C1214      C1215   1.413       .  A
C1215      C1216   1.404       .  A
C1215      O1220   1.373       .  S
C1216      C1217   1.401       .  A
C1216      H1221   1.084       .  S
C1217      C1218   1.409       .  A
C1218      O1222   1.372       .  S
C1219      C1224   1.410       .  A
C1219      C1228   1.408       .  A
O1220      H1236   0.992       .  S
O1222      H1233   0.992       .  S
C1224      C1225   1.401       .  A
C1224      O1229   1.371       .  S
C1225      C1226   1.406       .  A
C1225      H1230   1.084       .  S
C1226      C1227   1.408       .  A
C1227      C1228   1.403       .  A
C1227      O1231   1.372       .  S
C1228      H1232   1.083       .  S
O1229      H1234   0.992       .  S
O1231      H1235   0.992       .  S
C1237      C1238   1.399       .  A
C1237      C1242   1.403       .  A
C1237      H1247   1.084       .  S
C1238      C1243   1.480       .  S
C1238      C1239   1.402       .  A
C1239      C1240   1.400       .  A
C1239      O1244   1.372       .  S
C1240      C1241   1.413       .  A
C1240      H1245   1.076       .  S
C1241      C1242   1.419       .  A
C1242      O1246   1.372       .  S
C1243      C1248   1.403       .  A
C1243      C1252   1.402       .  A
O1244      H1260   0.992       .  S
O1246      H1257   0.991       .  S
C1248      C1249   1.400       .  A
C1248      O1253   1.372       .  S
C1249      C1250   1.411       .  A
C1249      H1254   1.083       .  S
C1250      C1251   1.414       .  A
C1251      C1252   1.405       .  A
C1251      O1255   1.370       .  S
C1252      H1256   1.084       .  S
O1253      H1774   0.991       .  S
H1258      O1769   0.992       .  S
C1261      C1262   1.402       .  A
C1261      C1266   1.403       .  A
C1261      H1271   1.084       .  S
C1262      C1267   1.480       .  S
C1262      C1263   1.405       .  A
C1263      C1264   1.400       .  A
C1263      O1268   1.371       .  S
C1264      C1265   1.408       .  A
C1264      H1269   1.083       .  S
C1265      C1266   1.416       .  A
C1266      O1270   1.372       .  S
C1267      C1272   1.406       .  A
C1267      C1276   1.402       .  A
O1268      H1284   0.992       .  S
O1270      H1281   0.992       .  S
C1272      C1273   1.402       .  A
C1272      O1277   1.371       .  S
C1273      C1274   1.405       .  A
C1273      H1278   1.083       .  S
C1274      C1275   1.413       .  A
C1275      C1276   1.403       .  A
C1275      O1279   1.373       .  S
C1276      H1280   1.084       .  S
O1277      H1282   0.992       .  S
O1279      H1283   0.992       .  S
C1285      C1286   1.405       .  A
C1285      C1290   1.401       .  A
C1285      H1295   1.083       .  S
C1286      C1291   1.486       .  S
C1286      C1287   1.410       .  A
C1287      C1288   1.403       .  A
C1287      O1292   1.371       .  S
C1288      C1289   1.401       .  A
C1288      H1293   1.083       .  S
C1289      C1290   1.407       .  A
C1290      O1294   1.372       .  S
C1291      C1296   1.410       .  A
C1291      C1300   1.403       .  A
O1292      H1308   0.992       .  S
O1294      H1305   0.992       .  S
C1296      C1297   1.405       .  A
C1296      O1301   1.371       .  S
C1297      C1298   1.404       .  A
C1297      H1302   1.084       .  S
C1298      C1299   1.410       .  A
C1299      C1300   1.400       .  A
C1299      O1303   1.371       .  S
C1300      H1304   1.084       .  S
O1301      H1306   0.992       .  S
O1303      H1307   0.992       .  S
C1309      C1310   1.399       .  A
C1309      C1314   1.394       .  A
C1309      H1319   1.084       .  S
C1310      C1315   1.478       .  S
C1310      C1311   1.408       .  A
C1311      C1312   1.405       .  A
C1311      O1316   1.372       .  S
C1312      C1313   1.405       .  A
C1312      H1317   1.083       .  S
C1313      C1314   1.412       .  A
C1314      O1318   1.372       .  S
C1315      C1320   1.407       .  A
C1315      C1324   1.400       .  A
O1316      H1332   0.991       .  S
O1318      H1329   0.992       .  S
C1320      C1321   1.401       .  A
C1320      O1325   1.371       .  S
C1321      C1322   1.407       .  A
C1322      C1323   1.416       .  A
C1323      C1324   1.398       .  A
C1323      O1327   1.372       .  S
C1324      H1328   1.084       .  S
O1327      H1331   0.992       .  S
C1333      C1334   1.406       .  A
C1333      C1338   1.399       .  A
C1333      H1343   1.082       .  S
C1334      C1339   1.492       .  S
C1334      C1335   1.413       .  A
C1335      C1336   1.401       .  A
C1335      O1340   1.372       .  S
C1336      C1337   1.404       .  A
C1336      H1341   1.084       .  S
C1337      C1338   1.408       .  A
C1338      O1342   1.372       .  S
C1339      C1344   1.412       .  A
C1339      C1348   1.407       .  A
O1340      H1356   0.992       .  S
O1342      H1869   0.992       .  S
C1344      C1345   1.402       .  A
C1344      O1349   1.373       .  S
C1345      C1346   1.402       .  A
C1345      H1350   1.084       .  S
C1346      C1347   1.407       .  A
C1347      C1348   1.401       .  A
C1347      O1351   1.371       .  S
C1348      H1352   1.083       .  S
O1349      H1354   0.992       .  S
O1351      H1355   0.991       .  S
H1353      O1858   0.992       .  S
C1357      C1358   1.400       .  A
C1357      C1362   1.396       .  A
C1357      H1367   1.084       .  S
C1358      C1363   1.476       .  S
C1358      C1359   1.405       .  A
C1359      C1360   1.397       .  A
C1359      O1364   1.372       .  S
C1360      C1361   1.409       .  A
C1360      H1365   1.083       .  S
C1361      C1362   1.414       .  A
C1362      O1366   1.372   1_554  S
C1363      C1368   1.403       .  A
C1363      C1372   1.399       .  A
O1364      H1380   0.992       .  S
O1366      H1377   0.992       .  S
C1368      C1369   1.397       .  A
C1368      O1373   1.374       .  S
C1369      C1370   1.413       .  A
C1369      H1374   1.075       .  S
C1370      C1371   1.417       .  A
C1371      C1372   1.400       .  A
C1371      O1375   1.372       .  S
C1372      H1376   1.084       .  S
O1373      H1378   0.992       .  S
O1375      H1379   0.992       .  S
C1381      C1382   1.401       .  A
C1381      C1386   1.399       .  A
C1381      H1391   1.084       .  S
C1382      C1387   1.482       .  S
C1382      C1383   1.407       .  A
C1383      C1384   1.400       .  A
C1383      O1388   1.372       .  S
C1384      C1385   1.407       .  A
C1384      H1389   1.083       .  S
C1385      C1386   1.417       .  A
C1386      O1390   1.372       .  S
C1387      C1392   1.405       .  A
C1387      C1396   1.401       .  A
O1388      H1404   0.992       .  S
O1390      H1401   0.992       .  S
C1392      C1393   1.397       .  A
C1392      O1397   1.372       .  S
C1393      C1394   1.413       .  A
C1393      H1398   1.075       .  S
C1394      C1395   1.416       .  A
C1395      C1396   1.400       .  A
C1395      O1399   1.372       .  S
C1396      H1400   1.084       .  S
O1397      H1402   0.992       .  S
O1399      H1403   0.992       .  S
C1405      C1406   1.403       .  A
C1405      C1410   1.399       .  A
C1405      H1415   1.083       .  S
C1406      C1411   1.482       .  S
C1406      C1407   1.408       .  A
C1407      C1408   1.399       .  A
C1407      O1412   1.373       .  S
C1408      C1409   1.406       .  A
C1408      H1413   1.084       .  S
C1409      C1410   1.410       .  A
C1410      O1414   1.371       .  S
C1411      C1416   1.409       .  A
C1411      C1420   1.406       .  A
O1412      H1428   0.992       .  S
O1414      H1425   0.992       .  S
C1416      C1417   1.398       .  A
C1416      O1421   1.372       .  S
C1417      C1418   1.400       .  A
C1417      H1422   1.084       .  S
C1418      C1419   1.406       .  A
C1419      C1420   1.402       .  A
C1419      O1423   1.371       .  S
C1420      H1424   1.084       .  S
O1421      H1426   0.992       .  S
O1423      H1427   0.992       .  S
C1429      C1430   1.400       .  A
C1429      C1434   1.397       .  A
C1429      H1439   1.084       .  S
C1430      C1435   1.477       .  S
C1430      C1431   1.406       .  A
C1431      C1432   1.400       .  A
C1431      O1436   1.372       .  S
C1432      C1433   1.409       .  A
C1432      H1437   1.083       .  S
C1433      C1434   1.415       .  A
C1434      O1438   1.371       .  S
C1435      C1440   1.405       .  A
C1435      C1444   1.406       .  A
O1436      H1452   0.992       .  S
O1438      H1449   0.992       .  S
C1440      C1441   1.393       .  A
C1440      O1445   1.372       .  S
C1441      C1442   1.402       .  A
C1441      H1446   1.084       .  S
C1442      C1443   1.408       .  A
C1443      C1444   1.404       .  A
C1443      O1447   1.372       .  S
C1444      H1448   1.084       .  S
O1445      H1450   0.992       .  S
O1447      H1451   0.992       .  S
C1453      C1454   1.403       .  A
C1453      C1458   1.405       .  A
C1453      H1463   1.083       .  S
C1454      C1459   1.481       .  S
C1454      C1455   1.407       .  A
C1455      C1456   1.400       .  A
C1455      O1460   1.372       .  S
C1456      C1457   1.405       .  A
C1456      H1461   1.084       .  S
C1457      C1458   1.409       .  A
C1458      O1462   1.371       .  S
C1459      C1464   1.406       .  A
C1459      C1468   1.403       .  A
O1460      H1476   0.992       .  S
O1462      H1473   0.992       .  S
C1464      C1465   1.399       .  A
C1464      O1469   1.371       .  S
C1465      C1466   1.406       .  A
C1465      H1470   1.083       .  S
C1466      C1467   1.412       .  A
C1467      C1468   1.405       .  A
C1467      O1471   1.371       .  S
C1468      H1472   1.084       .  S
O1469      H1474   0.992       .  S
O1471      H1475   0.992       .  S
C1477      C1478   1.399       .  A
C1477      C1482   1.401       .  A
C1477      H1487   1.084       .  S
C1478      C1483   1.479       .  S
C1478      C1479   1.405       .  A
C1479      C1480   1.401       .  A
C1479      O1484   1.372       .  S
C1480      C1481   1.408       .  A
C1480      H1485   1.083       .  S
C1481      C1482   1.420       .  A
C1482      O1486   1.372       .  S
C1483      C1488   1.401       .  A
C1483      C1492   1.400       .  A
O1484      H1500   0.991       .  S
O1486      H1497   0.992       .  S
C1488      C1489   1.400       .  A
C1488      O1493   1.373       .  S
C1489      C1490   1.413       .  A
C1489      H1494   1.077       .  S
C1490      C1491   1.419       .  A
C1491      C1492   1.402       .  A
C1491      O1495   1.372       .  S
C1492      H1496   1.084       .  S
O1493      H1498   0.992       .  S
O1495      H1499   0.991       .  S
C1501      C1502   1.401       .  A
C1501      C1506   1.400       .  A
C1501      H1511   1.084       .  S
C1502      C1507   1.473       .  S
C1502      C1503   1.402       .  A
C1503      C1504   1.396       .  A
C1503      O1508   1.371       .  S
C1504      C1505   1.409       .  A
C1504      H1509   1.083       .  S
C1505      C1506   1.416       .  A
C1506      O1510   1.372       .  S
C1507      C1512   1.407       .  A
C1507      C1516   1.401       .  A
O1508      H1524   0.992       .  S
O1510      H1521   0.992       .  S
C1512      C1513   1.402       .  A
C1512      O1517   1.371       .  S
C1513      C1514   1.402       .  A
C1513      H1518   1.084       .  S
C1514      C1515   1.408       .  A
C1515      C1516   1.396       .  A
C1515      O1519   1.372       .  S
C1516      H1520   1.084       .  S
O1517      H1522   0.992       .  S
O1519      H1523   0.992       .  S
C1525      C1526   1.402       .  A
C1525      C1530   1.398       .  A
C1525      H1535   1.083       .  S
C1526      C1531   1.481       .  S
C1526      C1527   1.409       .  A
C1527      C1528   1.396       .  A
C1527      O1532   1.372       .  S
C1528      C1529   1.405       .  A
C1528      H1533   1.084       .  S
C1529      C1530   1.411       .  A
C1530      O1534   1.371       .  S
C1531      C1536   1.407       .  A
C1531      C1540   1.402       .  A
O1532      H1548   0.992       .  S
O1534      H1545   0.992       .  S
C1536      C1537   1.398       .  A
C1536      O1541   1.372       .  S
C1537      C1538   1.407       .  A
C1537      H1542   1.083       .  S
C1538      C1539   1.413       .  A
C1539      C1540   1.400       .  A
C1539      O1543   1.372       .  S
C1540      H1544   1.084       .  S
O1541      H1546   0.992       .  S
O1543      H1547   0.992       .  S
C1549      C1550   1.546       .  S
C1549      C1555   1.536       .  S
C1549      C1553   1.538       .  S
C1549      C2006   1.536       .  S
C1550      H1557   1.081       .  S
C1550      C1551   1.364       .  D
C1551      C1552   1.533       .  S
C1551      C2030   1.480       .  S
C1552      C1556   1.542       .  S
C1552      C1554   1.537       .  S
C1552      H1558   1.109       .  S
C1553      H1559   1.086       .  S
C1553      C1554   1.366       .  D
C1554      C2054   1.479       .  S
C1555      H1560   1.086       .  S
C1555      C1556   1.368       .  D
C1556      C1982   1.492       .  S
C1561      C1562   1.539       .  S
C1561      C1567   1.534       .  S
C1561      C1565   1.534       .  S
C1561      C1910   1.532       .  S
C1562      H1569   1.079       .  S
C1562      C1563   1.363       .  D
C1563      C1564   1.541       .  S
C1563      C1958   1.486       .  S
C1564      C1568   1.550       .  S
C1564      C1566   1.539       .  S
C1564      H1570   1.108       .  S
C1565      H1571   1.086       .  S
C1565      C1566   1.362       .  D
C1566      C1934   1.479       .  S
C1567      H1572   1.086       .  S
C1567      C1568   1.370       .  D
C1568      C1973   1.493       .  S
C1573      C1574   1.538       .  S
C1573      C1579   1.536       .  S
C1573      C1577   1.544       .  S
C1573      C1886   1.537       .  S
C1574      H1581   1.085       .  S
C1574      C1575   1.368       .  D
C1575      C1576   1.541       .  S
C1575      C1862   1.486       .  S
C1576      C1580   1.537       .  S
C1576      C1578   1.531       .  S
C1576      H1582   1.111       .  S
C1577      H1583   1.082       .  S
C1577      C1578   1.364       .  D
C1578      C1829   1.472       .  S
C1579      H1584   1.086       .  S
C1579      C1580   1.365       .  D
C1580      C1805   1.477       .  S
C1585      C1586   1.538       .  S
C1585      C1591   1.539       .  S
C1585      C1589   1.547       .  S
C1585      C1757   1.537       .  S
C1586      H1593   1.086       .  S
C1586      C1587   1.365       .  D
C1587      C1588   1.535       .  S
C1587      C1790   1.482       .  S
C1588      C1592   1.540       .  S
C1588      C1590   1.531       .  S
C1588      H1594   1.111       .  S
C1589      H1595   1.081       .  S
C1589      C1590   1.366       .  D
C1590      C1733   1.476       .  S
C1591      H1596   1.086       .  S
C1591      C1592   1.368       .  D
C1592      C1814   1.487       .  S
Zr1597     O1598   2.437       .  S
Zr1597     O1599   2.429   1_556  S
O1598      H1654   0.990       .  S
O1599      C1619   1.284       .  A
O1600      C1621   1.282       .  A
O1601     Zr1611   2.430       .  S
O1601      C1620   1.285       .  A
O1602     Zr1610   2.432       .  S
O1602      C1621   1.285       .  A
O1603      C1620   1.284       .  A
O1604      C1619   1.285       .  A
O1605     Zr1610   2.384   1_554  S
O1606     Zr1611   2.387   1_554  S
O1606      H1641   0.966       .  S
O1607     Zr1610   2.393       .  S
O1607      H1644   0.967       .  S
O1608     Zr1611   2.388       .  S
Zr1609     O1634   2.446       .  S
Zr1609     O1628   2.433   1_554  S
Zr1609     O1636   2.429       .  S
Zr1609     O1624   2.422   1_655  S
Zr1609     O1617   2.380   1_654  S
Zr1609     O1618   2.381   1_554  S
Zr1610     O1629   2.433       .  S
Zr1610     O1622   2.436   1_556  S
Zr1610     O1623   2.427   1_556  S
Zr1610     O1616   2.394   1_556  S
Zr1611     O1613   2.437       .  S
Zr1611     O1635   2.438   1_556  S
Zr1611     O1637   2.422   1_556  S
Zr1611     O1615   2.394   1_556  S
Zr1612     O1639   2.434   1_455  S
O1613      H1650   0.990       .  S
O1614      H1645   0.990       .  S
O1614      H1659   0.990       .  S
O1616      H1642   0.967       .  S
O1617     Zr1627   2.372   1_455  S
O1618     Zr1627   2.377       .  S
C1619      C1877   1.492       .  S
C1620      C2021   1.490       .  S
C1621      C2045   1.475       .  S
O1622      H1658   0.990       .  S
O1623      C1625   1.284       .  A
C1625      C1838   1.491       .  S
O1626     Zr1627   2.438       .  S
O1626      H1655   0.990       .  S
Zr1627     O1632   2.417       .  S
O1628      C1633   1.285       .  A
O1629      H1646   0.990       .  S
O1629      H1661   0.990       .  S
O1631      H1660   0.990       .  S
O1632      C1633   1.281       .  A
C1633      C1997   1.490       .  S
O1634      H1653   0.990       .  S
O1634      H1657   0.990       .  S
O1635      H1649   0.990       .  S
O1635      H1656   0.990       .  S
O1637      C1640   1.283       .  A
O1638      H1648   0.990       .  S
O1639      H1652   0.990       .  S
C1640      C1853   1.494       .  S
Zr1663     O1664   2.441       .  S
Zr1663     O1665   2.421       .  S
Zr1663     O1666   2.446       .  S
Zr1663     O1669   2.433       .  S
Zr1663     O1671   2.376       .  S
Zr1663     O1672   2.383       .  S
O1664      H1720   0.990       .  S
O1664      H1728   0.991       .  S
O1665      C1685   1.283       .  A
O1667     Zr1677   2.421       .  S
O1667      C1686   1.283       .  A
O1668     Zr1676   2.436       .  S
O1668      C1687   1.286       .  A
O1670     Zr1678   2.402       .  S
O1670      C1685   1.278       .  A
O1671     Zr1678   2.375       .  S
O1672     Zr1678   2.381       .  S
O1673     Zr1676   2.395       .  S
O1673     Zr1693   2.392       .  S
O1673      H1710   0.967       .  S
O1674     Zr1677   2.392       .  S
Zr1675     O1700   2.448       .  S
Zr1675     O1694   2.437       .  S
Zr1676     O1695   2.436       .  S
Zr1676     O1688   2.435       .  S
Zr1676     O1689   2.429       .  S
Zr1676     O1682   2.398       .  S
Zr1676     O1683   2.393       .  S
Zr1677     O1679   2.435       .  S
Zr1677     O1701   2.439       .  S
Zr1677     O1703   2.425       .  S
Zr1677     O1681   2.392       .  S
Zr1677     O1684   2.388       .  S
Zr1678     O1705   2.435       .  S
O1679      H1716   0.990       .  S
O1680      H1725   0.990       .  S
O1682      H1708   0.967       .  S
O1683     Zr1693   2.373       .  S
O1684      H1709   0.966       .  S
C1685      C1901   1.479       .  S
C1686      C1781   1.492       .  S
C1687      C1742   1.483       .  S
O1688      H1724   0.990       .  S
O1689      C1691   1.286       .  A
O1690      C1691   1.286       .  A
C1691      C1925   1.485       .  S
Zr1693     O1696   2.437       .  S
O1694      C1699   1.286       .  A
O1695      H1712   0.990       .  S
O1695      H1727   0.990       .  S
O1696      H1713   0.990       .  S
O1697      H1717   0.990       .  S
O1697      H1726   0.990       .  S
O1698      C1699   1.283       .  A
C1699      C1766   1.493       .  S
O1701      H1715   0.990       .  S
O1701      H1722   0.990       .  S
O1702      C1706   1.286       .  A
O1703      C1706   1.283       .  A
C1706      C1949   1.486       .  S
C1729      C1730   1.405       .  A
C1729      C1734   1.400       .  A
C1729      H1739   1.083       .  S
C1730      C1735   1.486       .  S
C1730      C1731   1.411       .  A
C1731      C1732   1.402       .  A
C1731      O1736   1.373       .  S
C1732      C1733   1.401       .  A
C1732      H1737   1.084       .  S
C1733      C1734   1.405       .  A
C1734      O1738   1.371       .  S
C1735      C1740   1.409       .  A
C1735      C1744   1.405       .  A
O1736      H1752   0.992       .  S
O1738      H1749   0.992       .  S
C1740      C1741   1.401       .  A
C1740      O1745   1.372       .  S
C1741      C1742   1.406       .  A
C1741      H1746   1.084       .  S
C1742      C1743   1.411       .  A
C1743      C1744   1.402       .  A
C1743      O1747   1.372       .  S
C1744      H1748   1.084       .  S
O1745      H1750   0.992       .  S
O1747      H1751   0.992       .  S
C1753      C1754   1.400       .  A
C1753      C1758   1.399       .  A
C1753      H1763   1.083       .  S
C1754      C1759   1.486       .  S
C1754      C1755   1.407       .  A
C1755      C1756   1.402       .  A
C1755      O1760   1.372       .  S
C1756      C1757   1.413       .  A
C1756      H1761   1.076       .  S
C1757      C1758   1.417       .  A
C1758      O1762   1.372       .  S
C1759      C1764   1.407       .  A
C1759      C1768   1.403       .  A
O1760      H1776   0.992       .  S
O1762      H1773   0.991       .  S
C1764      C1765   1.399       .  A
C1764      O1769   1.372       .  S
C1765      C1766   1.410       .  A
C1765      H1770   1.083       .  S
C1766      C1767   1.415       .  A
C1767      C1768   1.403       .  A
C1767      O1771   1.371       .  S
C1768      H1772   1.083       .  S
C1777      C1778   1.399       .  A
C1777      C1782   1.400       .  A
C1777      H1787   1.084       .  S
C1778      C1783   1.474       .  S
C1778      C1779   1.403       .  A
C1779      C1780   1.399       .  A
C1779      O1784   1.372       .  S
C1780      C1781   1.412       .  A
C1780      H1785   1.083       .  S
C1781      C1782   1.415       .  A
C1782      O1786   1.371       .  S
C1783      C1788   1.405       .  A
C1783      C1792   1.400       .  A
O1784      H1800   0.992       .  S
O1786      H1797   0.992       .  S
C1788      C1789   1.399       .  A
C1788      O1793   1.371       .  S
C1789      C1790   1.404       .  A
C1789      H1794   1.084       .  S
C1790      C1791   1.411       .  A
C1791      C1792   1.400       .  A
C1791      O1795   1.372       .  S
C1792      H1796   1.084       .  S
O1793      H1798   0.992       .  S
O1795      H1799   0.992       .  S
C1801      C1802   1.406       .  A
C1801      C1806   1.401       .  A
C1801      H1811   1.083       .  S
C1802      C1807   1.484       .  S
C1802      C1803   1.409       .  A
C1803      C1804   1.401       .  A
C1803      O1808   1.372       .  S
C1804      C1805   1.402       .  A
C1804      H1809   1.083       .  S
C1805      C1806   1.406       .  A
C1806      O1810   1.372       .  S
C1807      C1812   1.407       .  A
C1807      C1816   1.404       .  A
O1808      H1824   0.992       .  S
O1810      H1821   0.992       .  S
C1812      C1813   1.402       .  A
C1812      O1817   1.372       .  S
C1813      C1814   1.405       .  A
C1813      H1818   1.083       .  S
C1814      C1815   1.412       .  A
C1815      C1816   1.400       .  A
C1815      O1819   1.372       .  S
C1816      H1820   1.084       .  S
O1817      H1822   0.991       .  S
O1819      H1823   0.992       .  S
C1825      C1826   1.401       .  A
C1825      C1830   1.395       .  A
C1825      H1835   1.084       .  S
C1826      C1831   1.478       .  S
C1826      C1827   1.410       .  A
C1827      C1828   1.403       .  A
C1827      O1832   1.372       .  S
C1828      C1829   1.400       .  A
C1828      H1833   1.083       .  S
C1829      C1830   1.406       .  A
C1830      O1834   1.372       .  S
C1831      C1836   1.405       .  A
C1831      C1840   1.400       .  A
O1832      H1848   0.992       .  S
O1834      H1845   0.992       .  S
C1836      C1837   1.400       .  A
C1836      O1841   1.372       .  S
C1837      C1838   1.409       .  A
C1838      C1839   1.417       .  A
C1839      C1840   1.399       .  A
C1839      O1843   1.372       .  S
C1840      H1844   1.084       .  S
O1843      H1847   0.992       .  S
C1849      C1850   1.402       .  A
C1849      C1854   1.404       .  A
C1849      H1859   1.084       .  S
C1850      C1855   1.476       .  S
C1850      C1851   1.401       .  A
C1851      C1852   1.398       .  A
C1851      O1856   1.372       .  S
C1852      C1853   1.411       .  A
C1852      H1857   1.083       .  S
C1853      C1854   1.416       .  A
C1854      O1858   1.371   1_565  S
C1855      C1860   1.405       .  A
C1855      C1864   1.399       .  A
O1856      H1872   0.992       .  S
C1860      C1861   1.404       .  A
C1860      O1865   1.371       .  S
C1861      C1862   1.405       .  A
C1861      H1866   1.083       .  S
C1862      C1863   1.413       .  A
C1863      C1864   1.399       .  A
C1863      O1867   1.372       .  S
C1864      H1868   1.084       .  S
O1865      H1870   0.992       .  S
O1867      H1871   0.992       .  S
C1873      C1874   1.404       .  A
C1873      C1878   1.402       .  A
C1873      H1883   1.083       .  S
C1874      C1879   1.486       .  S
C1874      C1875   1.406       .  A
C1875      C1876   1.399       .  A
C1875      O1880   1.371       .  S
C1876      C1877   1.409       .  A
C1876      H1881   1.083       .  S
C1877      C1878   1.416       .  A
C1878      O1882   1.372   1_554  S
C1879      C1884   1.405       .  A
C1879      C1888   1.402       .  A
O1880      H1896   0.992       .  S
O1882      H1893   0.992       .  S
C1884      C1885   1.401       .  A
C1884      O1889   1.372       .  S
C1885      C1886   1.413       .  A
C1885      H1890   1.077       .  S
C1886      C1887   1.416       .  A
C1887      C1888   1.402       .  A
C1887      O1891   1.372       .  S
C1888      H1892   1.083       .  S
O1889      H1894   0.992       .  S
O1891      H1895   0.991       .  S
C1897      C1898   1.401       .  A
C1897      C1902   1.397       .  A
C1897      H1907   1.084       .  S
C1898      C1903   1.476       .  S
C1898      C1899   1.407       .  A
C1899      C1900   1.395       .  A
C1899      O1904   1.373       .  S
C1900      C1901   1.404       .  A
C1900      H1905   1.083       .  S
C1901      C1902   1.416       .  A
C1902      O1906   1.372       .  S
C1903      C1908   1.402       .  A
C1903      C1912   1.401       .  A
O1904      H1920   0.993       .  S
O1906      H1917   0.992       .  S
C1908      C1909   1.392       .  A
C1908      O1913   1.372       .  S
C1909      C1910   1.413       .  A
C1909      H1914   1.074       .  S
C1910      C1911   1.416       .  A
C1911      C1912   1.401       .  A
C1911      O1915   1.372       .  S
C1912      H1916   1.084       .  S
O1913      H1918   0.992       .  S
O1915      H1919   0.992       .  S
C1921      C1922   1.406       .  A
C1921      C1926   1.402       .  A
C1921      H1931   1.083       .  S
C1922      C1927   1.491       .  S
C1922      C1923   1.410       .  A
C1923      C1924   1.402       .  A
C1923      O1928   1.373       .  S
C1924      C1925   1.406       .  A
C1924      H1929   1.084       .  S
C1925      C1926   1.411       .  A
C1926      O1930   1.372       .  S
C1927      C1932   1.413       .  A
C1927      C1936   1.406       .  A
O1928      H1944   0.992       .  S
O1930      H1941   0.991       .  S
C1932      C1933   1.402       .  A
C1932      O1937   1.372       .  S
C1933      C1934   1.401       .  A
C1933      H1938   1.084       .  S
C1934      C1935   1.405       .  A
C1935      C1936   1.401       .  A
C1935      O1939   1.371       .  S
C1936      H1940   1.083       .  S
O1937      H1942   0.992       .  S
O1939      H1943   0.992       .  S
C1945      C1946   1.397       .  A
C1945      C1950   1.396       .  A
C1945      H1955   1.084       .  S
C1946      C1951   1.470       .  S
C1946      C1947   1.403       .  A
C1947      C1948   1.400       .  A
C1947      O1952   1.372       .  S
C1948      C1949   1.409       .  A
C1948      H1953   1.083       .  S
C1949      C1950   1.416       .  A
C1950      O1954   1.371       .  S
C1951      C1956   1.401       .  A
C1951      C1960   1.402       .  A
O1952      H1968   0.992       .  S
O1954      H1965   0.992       .  S
C1956      C1957   1.393       .  A
C1956      O1961   1.373       .  S
C1957      C1958   1.409       .  A
C1957      H1962   1.083       .  S
C1958      C1959   1.410       .  A
C1959      C1960   1.402       .  A
C1959      O1963   1.371       .  S
C1960      H1964   1.083       .  S
O1961      H1966   0.992       .  S
O1963      H1967   0.992       .  S
C1969      C1970   1.403       .  A
C1969      C1974   1.406       .  A
C1969      H1979   1.083       .  S
C1970      C1975   1.482       .  S
C1970      C1971   1.405       .  A
C1971      C1972   1.401       .  A
C1971      O1976   1.372       .  S
C1972      C1973   1.408       .  A
C1972      H1977   1.084       .  S
C1973      C1974   1.410       .  A
C1974      O1978   1.371       .  S
C1975      C1980   1.407       .  A
C1975      C1984   1.402       .  A
O1976      H1992   0.992       .  S
O1978      H1989   0.992       .  S
C1980      C1981   1.401       .  A
C1980      O1985   1.371       .  S
C1981      C1982   1.406       .  A
C1981      H1986   1.083       .  S
C1982      C1983   1.413       .  A
C1983      C1984   1.404       .  A
C1983      O1987   1.371       .  S
C1984      H1988   1.083       .  S
O1985      H1990   0.992       .  S
O1987      H1991   0.992       .  S
C1993      C1994   1.399       .  A
C1993      C1998   1.397       .  A
C1993      H2003   1.084       .  S
C1994      C1999   1.480       .  S
C1994      C1995   1.407       .  A
C1995      C1996   1.402       .  A
C1995      O2000   1.372       .  S
C1996      C1997   1.408       .  A
C1996      H2001   1.083   1_556  S
C1997      C1998   1.418       .  A
C1998      O2002   1.372       .  S
C1999      C2004   1.402       .  A
C1999      C2008   1.400       .  A
O2000      H2016   0.992       .  S
O2002      H2013   0.992       .  S
C2004      C2005   1.400       .  A
C2004      O2009   1.373       .  S
C2005      C2006   1.413       .  A
C2005      H2010   1.076       .  S
C2006      C2007   1.418       .  A
C2007      C2008   1.402       .  A
C2007      O2011   1.373       .  S
C2008      H2012   1.084       .  S
O2009      H2014   0.992       .  S
O2011      H2015   0.992       .  S
C2017      C2018   1.401       .  A
C2017      C2022   1.401       .  A
C2017      H2027   1.084       .  S
C2018      C2023   1.479       .  S
C2018      C2019   1.404       .  A
C2019      C2020   1.399       .  A
C2019      O2024   1.371       .  S
C2020      C2021   1.409       .  A
C2020      H2025   1.083       .  S
C2021      C2022   1.416       .  A
C2022      O2026   1.371       .  S
C2023      C2028   1.408       .  A
C2023      C2032   1.402       .  A
O2024      H2040   0.992       .  S
O2026      H2037   0.992       .  S
C2028      C2029   1.403       .  A
C2028      O2033   1.371       .  S
C2029      C2030   1.402       .  A
C2029      H2034   1.084       .  S
C2030      C2031   1.409       .  A
C2031      C2032   1.399       .  A
C2031      O2035   1.373       .  S
C2032      H2036   1.084       .  S
O2033      H2038   0.992       .  S
O2035      H2039   0.991       .  S
C2041      C2042   1.402       .  A
C2041      C2046   1.399       .  A
C2041      H2051   1.083       .  S
C2042      C2047   1.480       .  S
C2042      C2043   1.409       .  A
C2043      C2044   1.397       .  A
C2043      O2048   1.372       .  S
C2044      C2045   1.402       .  A
C2044      H2049   1.084       .  S
C2045      C2046   1.411       .  A
C2046      O2050   1.371       .  S
C2047      C2052   1.409       .  A
C2047      C2056   1.403       .  A
O2048      H2064   0.992       .  S
O2050      H2061   0.992       .  S
C2052      C2053   1.398       .  A
C2052      O2057   1.372       .  S
C2053      C2054   1.404       .  A
C2053      H2058   1.084       .  S
C2054      C2055   1.408       .  A
C2055      C2056   1.397       .  A
C2055      O2059   1.372       .  S
C2056      H2060   1.084       .  S
O2057      H2062   0.992       .  S
O2059      H2063   0.992       .  S
