geometry optimzed in LAMMPS
_audit_creation_date              2020-12-01 
_audit_creation_method            'lammps2cif' 
_symmetry_space_group_name_H-M    'P1' 
_symmetry_Int_Tables_number       1 
_symmetry_cell_setting            triclinic 
loop_ 
_symmetry_equiv_pos_as_xyz 
  x,y,z 
_cell_length_a                    29.16439148 
_cell_length_b                    38.03529494342832 
_cell_length_c                    58.540412079096896 
_cell_angle_alpha                 89.9264294587496 
_cell_angle_beta                  89.7600070250749 
_cell_angle_gamma                 90.620383401075 
loop_ 
_atom_site_label 
_atom_site_type_symbol 
_atom_site_fract_x 
_atom_site_fract_y 
_atom_site_fract_z 
_atom_site_charge 
N1          N  0.50113288  0.49638777  0.96586860    -0.35900
N2          N  0.51817399  0.44072050  0.99951693    -0.56500
N3          N  0.52899096  0.49376197  0.03443590    -0.35900
N4          N  0.51728356  0.54943562  0.00038992    -0.56500
C5          C  0.50480669  0.46819065  0.95200018     0.27700
C6          C  0.50373018  0.52547590  0.95256371     0.27700
C7          C  0.54100469  0.46483936  0.04640993     0.27700
C8          C  0.54174284  0.52220142  0.04678544     0.27700
C9          C  0.50436875  0.42081370  0.98169234     0.36300
C10         C  0.51822365  0.41931118  0.01798239     0.36300
C11         C  0.50325453  0.57064735  0.98330170     0.36300
C12         C  0.51823451  0.56933013  0.01947134     0.36300
C13         C  0.50918486  0.47946604  0.92952414    -0.21200
C14         C  0.50834956  0.51560267  0.92987552    -0.21200
C15         C  0.56129383  0.47502873  0.06676261    -0.21200
C16         C  0.56176129  0.51120012  0.06700850    -0.21200
C17         C  0.49643773  0.38646625  0.98877649    -0.22200
C18         C  0.50516129  0.38553024  0.01178104    -0.22200
C19         C  0.49604309  0.60431596  0.99146291    -0.22200
C20         C  0.50553131  0.60349414  0.01438436    -0.22200
C21         C  0.50153138  0.43254154  0.95882633    -0.17600
C22         C  0.49944775  0.56058847  0.96017828    -0.17600
C23         C  0.53255414  0.55768225  0.04122428    -0.17600
C24         C  0.53132809  0.42954484  0.04023658    -0.17600
H25         H  0.51214024  0.46332362  0.91438445     0.15300
H26         H  0.51054455  0.53262004  0.91506995     0.15300
H27         H  0.57383483  0.45814624  0.08020580     0.15300
H28         H  0.57464608  0.52750823  0.08074250     0.15300
H29         H  0.48567020  0.36433741  0.97842296     0.13600
H30         H  0.50230966  0.36258228  0.02266654     0.13600
H31         H  0.48541268  0.62715714  0.98188190     0.13600
H32         H  0.50359635  0.62562213  0.02594039     0.13600
H33         H  0.49193622  0.49561472  0.98305423     0.26900
H34         H  0.50801065  0.49413206  0.02012765     0.26900
O35         O  0.49910383  0.23078332  0.23566719    -0.57100
C36         C  0.64228828  0.22133617  0.22187614     0.75500
O37         O  0.54645054  0.14554767  0.18644889    -0.58300
C38         C  0.46204618  0.21769375  0.22804472     0.75500
C39         C  0.54437870  0.24846373  0.16669366     0.77900
Cd40       Cd  0.55018026  0.20313351  0.20626179     1.37500
O41         O  0.60882867  0.21993011  0.23579347    -0.57100
O42         O  0.54027508  0.25947098  0.18698768    -0.55900
C43         C  0.55179765  0.12724659  0.20432352     0.77900
O44         O  0.55018010  0.21568347  0.16452259    -0.58300
O45         O  0.63288609  0.21397814  0.20139849    -0.56700
O46         O  0.46627382  0.19724849  0.21116197    -0.56700
O47         O  0.55724764  0.14414801  0.22271890    -0.55900
O48         O  0.50414637  0.76710381  0.23523324    -0.57100
C49         C  0.64653945  0.77066272  0.22184485     0.75500
O50         O  0.55570602  0.77035023  0.16275564    -0.58300
C51         C  0.46793007  0.77580633  0.22486720     0.75500
C52         C  0.56077007  0.86218872  0.20050476     0.77900
Cd53       Cd  0.55727231  0.78660144  0.20379111     1.37500
O54         O  0.61061988  0.76619994  0.23384785    -0.57100
O55         O  0.57331873  0.84598140  0.21825723    -0.55900
C56         C  0.55741238  0.73753685  0.16641699     0.77900
O57         O  0.54849244  0.84330856  0.18376830    -0.58300
O58         O  0.64050809  0.78267764  0.20191009    -0.56700
O59         O  0.47369446  0.78904947  0.20525342    -0.56700
O60         O  0.55819122  0.72804377  0.18709711    -0.55900
O61         O  0.10496519  0.27598210  0.26607867    -0.57100
C62         C  0.96142586  0.28478021  0.27669655     0.75500
O63         O  0.04623871  0.28288664  0.33732358    -0.58300
C64         C  0.14073055  0.28123741  0.27788828     0.75500
C65         C  0.05760862  0.37396242  0.29784115     0.77900
Cd66       Cd  0.05123286  0.29817222  0.29601836     1.37500
O67         O  0.99766112  0.27708824  0.26579049    -0.57100
O68         O  0.04983610  0.35758447  0.27942885    -0.55900
C69         C  0.04659553  0.24989587  0.33419568     0.77900
O70         O  0.06127482  0.35529578  0.31565682    -0.58300
O71         O  0.96726706  0.29886905  0.29602920    -0.56700
O72         O  0.13451519  0.29471246  0.29736058    -0.56700
O73         O  0.04861218  0.23994909  0.31363633    -0.55900
O74         O  0.00377060  0.73689000  0.26700030    -0.57100
C75         C  0.14436278  0.73466559  0.28021798     0.75500
O76         O  0.05291632  0.73110875  0.33776939    -0.58300
C77         C  0.96799349  0.72260338  0.27540808     0.75500
C78         C  0.06332198  0.63919538  0.29802235     0.77900
Cd79       Cd  0.05534256  0.71438524  0.29684586     1.37500
O80         O  0.11038027  0.73279997  0.26682394    -0.57100
O81         O  0.06468768  0.65672021  0.27968245    -0.55900
C82         C  0.04429343  0.76316442  0.33385813     0.77900
O83         O  0.05791310  0.65666711  0.31627318    -0.58300
O84         O  0.13683629  0.72717141  0.30093910    -0.56700
O85         O  0.97310155  0.70443866  0.29330952    -0.56700
O86         O  0.04042085  0.77177379  0.31308152    -0.55900
N87         N  0.96694614  0.00338155  0.53255566    -0.35900
N88         N  0.96833112  0.95074378  0.49654941    -0.56500
N89         N  0.98706494  0.00636151  0.46381432    -0.35900
N90         N  0.98164147  0.05892414  0.49929999    -0.56500
C91         C  0.95013853  0.97496173  0.54385691     0.27700
C92         C  0.95767174  0.03200914  0.54540003     0.27700
C93         C  0.97847565  0.97882175  0.44987149     0.27700
C94         C  0.98325001  0.03589919  0.45112708     0.27700
C95         C  0.96901808  0.92941747  0.51499084     0.36300
C96         C  0.98175141  0.93103675  0.47860367     0.36300
C97         C  0.98715314  0.07784111  0.51859327     0.36300
C98         C  0.99647923  0.07953682  0.48193531     0.36300
C99         C  0.93004399  0.98560223  0.56417184    -0.21200
C100        C  0.93473125  0.02163538  0.56513407    -0.21200
C101        C  0.96899912  0.99091242  0.42806488    -0.21200
C102        C  0.97199076  0.02702260  0.42885883    -0.21200
C103        C  0.98207702  0.89585017  0.50869068    -0.22200
C104        C  0.99041410  0.89692245  0.48560904    -0.22200
C105        C  0.00540817  0.11075828  0.51345471    -0.22200
C106        C  0.01113405  0.11188008  0.49016168    -0.22200
C107        C  0.95612458  0.93954340  0.53726016    -0.17600
C108        C  0.97192504  0.06690866  0.54043219    -0.17600
C109        C  0.99387928  0.07027118  0.45866488    -0.17600
C110        C  0.98392661  0.94314952  0.45583388    -0.17600
H111        H  0.91431394  0.96904253  0.57712501     0.15300
H112        H  0.92316357  0.03824480  0.57895816     0.15300
H113        H  0.96180673  0.97526652  0.41304331     0.15300
H114        H  0.96750997  0.04468077  0.41454836     0.15300
H115        H  0.98534159  0.87300750  0.51958515     0.13600
H116        H  0.00134719  0.87503722  0.47520334     0.13600
H117        H  0.01285964  0.13200253  0.52519751     0.13600
H118        H  0.02399194  0.13408517  0.48038423     0.13600
H119        H  0.98857125  0.00279976  0.51841367     0.26900
H120        H  0.00122892  0.00475931  0.48005516     0.26900
O121        O  0.50437225  0.22376836  0.76602677    -0.57100
C122        C  0.36135826  0.22419854  0.78080457     0.75500
O123        O  0.44525269  0.14728369  0.81811736    -0.58300
C124        C  0.54058844  0.22003965  0.77765125     0.75500
C125        C  0.46002511  0.25180839  0.83482143     0.77900
Cd126      Cd  0.45127094  0.20395265  0.79713020     1.37500
O127        O  0.39536224  0.22299078  0.76722959    -0.57100
O128        O  0.45567908  0.26207306  0.81437209    -0.55900
C129        C  0.44631325  0.12790321  0.80057116     0.77900
O130        O  0.45913433  0.21882655  0.83792690    -0.58300
O131        O  0.36935338  0.21524536  0.80116271    -0.56700
O132        O  0.53495235  0.20809053  0.79763974    -0.56700
O133        O  0.45002576  0.14367524  0.78159580    -0.55900
O134        O  0.38814117  0.76056853  0.76734280    -0.57100
C135        C  0.53127315  0.77421210  0.77803814     0.75500
O136        O  0.43924532  0.84298874  0.81758182    -0.58300
C137        C  0.35122372  0.76724786  0.77790770     0.75500
C138        C  0.44542134  0.73776726  0.83504613     0.77900
Cd139      Cd  0.44046243  0.78571894  0.79696158     1.37500
O140        O  0.49620695  0.77480866  0.76530976    -0.57100
O141        O  0.44601880  0.72730081  0.81451285    -0.55900
C142        C  0.43729468  0.86183154  0.79974862     0.77900
O143        O  0.44122516  0.77060313  0.83792883    -0.58300
O144        O  0.52402488  0.77899007  0.79909444    -0.56700
O145        O  0.35594298  0.78164307  0.79723579    -0.56700
O146        O  0.43783704  0.84544000  0.78099363    -0.55900
O147        O  0.89735869  0.26915867  0.73337873    -0.57100
C148        C  0.04261972  0.28335863  0.72516994     0.75500
O149        O  0.95301876  0.27763587  0.66391664    -0.58300
C150        C  0.86189475  0.28171691  0.72408127     0.75500
C151        C  0.95152836  0.36947584  0.70077879     0.77900
Cd152      Cd  0.95271931  0.29416443  0.70492805     1.37500
O153        O  0.00623408  0.27373277  0.73547893    -0.57100
O154        O  0.95336352  0.35417517  0.71997555    -0.55900
C155        C  0.95363859  0.24479360  0.66751901     0.77900
O156        O  0.95062581  0.34978666  0.68331937    -0.58300
O157        O  0.03719852  0.29802596  0.70598984    -0.56700
O158        O  0.86863855  0.30008229  0.70637451    -0.56700
O159        O  0.95397798  0.23538407  0.68820017    -0.55900
O160        O  0.99488371  0.73090976  0.72865098    -0.57100
C161        C  0.85097578  0.72521043  0.71982528     0.75500
O162        O  0.93715000  0.72366568  0.65861342    -0.58300
C163        C  0.03018232  0.71905871  0.71869326     0.75500
C164        C  0.93474168  0.63343977  0.69566026     0.77900
Cd165      Cd  0.93909707  0.70890535  0.69961999     1.37500
O166        O  0.88788915  0.73060623  0.73069555    -0.57100
O167        O  0.93032915  0.64886231  0.71469407    -0.55900
C168        C  0.94084428  0.75656449  0.66132095     0.77900
O169        O  0.93988357  0.65304920  0.67833481    -0.58300
O170        O  0.85522413  0.71202372  0.70011881    -0.56700
O171        O  0.02308032  0.70245053  0.70035669    -0.56700
O172        O  0.94337594  0.76725626  0.68173005    -0.55900
C173        C  0.94928537  0.40823012  0.69879754    -0.11300
C174        C  0.96837827  0.43082998  0.71546516     0.04200
C175        C  0.96337329  0.46716624  0.71341226    -0.11800
C176        C  0.93954529  0.48177171  0.69503679     0.19100
C177        C  0.92160937  0.45951141  0.67802287    -0.08800
C178        C  0.92655264  0.42305296  0.68000305    -0.01800
H179        H  0.97828712  0.48425888  0.72625078     0.05600
C180        C  0.93472943  0.52037267  0.69398058     0.21100
H181        H  0.91171169  0.40620298  0.66702085     0.10800
C182        C  0.95854420  0.53942516  0.67712235    -0.15200
C183        C  0.95836705  0.57621671  0.67697685     0.03800
C184        C  0.93395491  0.59459268  0.69405432    -0.10500
C185        C  0.90956557  0.57529747  0.71069849    -0.00500
C186        C  0.90967273  0.53856032  0.71072560    -0.05700
H187        H  0.97855755  0.52557936  0.66442856     0.06800
H188        H  0.89039652  0.58884642  0.72384235     0.10200
Br189      Br  0.88882758  0.47764940  0.65228660    -0.05400
Br190      Br  0.00378515  0.41433522  0.74081729    -0.02300
Br191      Br  0.99543984  0.59933885  0.65418609     0.00500
Br192      Br  0.87487949  0.51429527  0.73389754    -0.03900
C193        C  0.07723727  0.72530979  0.72757982    -0.11300
C194        C  0.11328199  0.70126508  0.72406764     0.04200
C195        C  0.15724208  0.70879348  0.73247934    -0.11800
C196        C  0.16678701  0.74040159  0.74391873     0.19100
C197        C  0.13135195  0.76507311  0.74654774    -0.08800
C198        C  0.08694758  0.75703427  0.73893201    -0.01800
H199        H  0.18424971  0.68979178  0.73008906     0.05600
C200        C  0.21396763  0.74702007  0.75270326     0.21100
H201        H  0.06022444  0.77631986  0.74113746     0.10800
C202        C  0.25107614  0.74859418  0.73734775    -0.15200
C203        C  0.29615678  0.75405376  0.74503876     0.03800
C204        C  0.30475397  0.75902392  0.76861040    -0.10500
C205        C  0.26749134  0.75665605  0.78393388    -0.00500
C206        C  0.22281300  0.74991321  0.77626465    -0.05700
H207        H  0.24491359  0.74545445  0.71922212     0.06800
H208        H  0.27321388  0.75925004  0.80212830     0.10200
Br209      Br  0.14246459  0.81113805  0.75879983    -0.05400
Br210      Br  0.10494701  0.65729880  0.70845653    -0.02300
Br211      Br  0.34381857  0.75477193  0.72230323     0.00500
Br212      Br  0.17567172  0.74211836  0.79875467    -0.03900
C213        C  0.80492958  0.73302947  0.72935033    -0.11300
C214        C  0.79736248  0.75942110  0.74591123     0.04200
C215        C  0.75282971  0.76559354  0.75394588    -0.11800
C216        C  0.71533355  0.74602878  0.74575605     0.19100
C217        C  0.72268347  0.72000907  0.72913889    -0.08800
C218        C  0.76703983  0.71376018  0.72109422    -0.01800
H219        H  0.74727565  0.78611029  0.76644909     0.05600
C220        C  0.66862414  0.75363673  0.75427241     0.21100
H221        H  0.77191555  0.69341950  0.70840370     0.10800
C222        C  0.63684015  0.76895923  0.73948491    -0.15200
C223        C  0.59208239  0.77604722  0.74674708     0.03800
C224        C  0.57830852  0.76762602  0.76929405    -0.10500
C225        C  0.61066291  0.75278219  0.78417486    -0.00500
C226        C  0.65541675  0.74580413  0.77685789    -0.05700
H227        H  0.64707605  0.77562644  0.72218567     0.06800
H228        H  0.60099344  0.74614776  0.80155470     0.10200
Br229      Br  0.67330109  0.69172536  0.71733559    -0.05400
Br230      Br  0.84530010  0.78962334  0.75716172    -0.02300
Br231      Br  0.55281465  0.79916391  0.72538108     0.00500
Br232      Br  0.69701355  0.72467179  0.79805159    -0.03900
C233        C  0.31474633  0.23504712  0.77330993    -0.11300
C234        C  0.27957050  0.24386731  0.78905697     0.04200
C235        C  0.23568744  0.25223970  0.78116719    -0.11800
C236        C  0.22571882  0.25259565  0.75777285     0.19100
C237        C  0.26093651  0.24512423  0.74203481    -0.08800
C238        C  0.30478532  0.23633117  0.74982081    -0.01800
H239        H  0.20907646  0.25866110  0.79339347     0.05600
C240        C  0.17840791  0.26077843  0.75014917     0.21100
H241        H  0.33102414  0.23000618  0.73738587     0.10800
C242        C  0.16987909  0.29278629  0.73910018    -0.15200
C243        C  0.12588879  0.30089666  0.73119673     0.03800
C244        C  0.08907234  0.27692686  0.73458900    -0.10500
C245        C  0.09748137  0.24530556  0.74622344    -0.00500
C246        C  0.14169412  0.23697837  0.75374368    -0.05700
H247        H  0.19771112  0.31147974  0.73649228     0.06800
H248        H  0.06988281  0.22639254  0.74876222     0.10200
Br249      Br  0.25028457  0.24556135  0.70972997    -0.05400
Br250      Br  0.28874503  0.24654930  0.82152622    -0.02300
Br251      Br  0.11796524  0.34573266  0.71671249     0.00500
Br252      Br  0.15098334  0.19184455  0.76755212    -0.03900
C253        C  0.81499951  0.27418237  0.73284191    -0.11300
C254        C  0.77907886  0.29874613  0.73115296     0.04200
C255        C  0.73472154  0.28947292  0.73844828    -0.11800
C256        C  0.72520855  0.25603513  0.74753363     0.19100
C257        C  0.76091526  0.23148829  0.74912611    -0.08800
C258        C  0.80534825  0.24081239  0.74207971    -0.01800
H259        H  0.70755374  0.30859192  0.73726150     0.05600
C260        C  0.67790138  0.24730293  0.75524121     0.21100
H261        H  0.83222268  0.22144742  0.74317239     0.10800
C262        C  0.64252716  0.24470046  0.73913114    -0.15200
C263        C  0.59750574  0.23602869  0.74578759     0.03800
C264        C  0.58727022  0.22959157  0.76909684    -0.10500
C265        C  0.62290597  0.23283700  0.78514924    -0.00500
C266        C  0.66754004  0.24197407  0.77848396    -0.05700
H267        H  0.65011283  0.24915176  0.72121862     0.06800
H268        H  0.61599223  0.22883295  0.80316557     0.10200
Br269      Br  0.75023366  0.18429467  0.75967967    -0.05400
Br270      Br  0.78871140  0.34595690  0.72034087    -0.02300
Br271      Br  0.55255805  0.23264640  0.72200208     0.00500
Br272      Br  0.71266313  0.24849455  0.80193601    -0.03900
C273        C  0.43537505  0.90084528  0.80077686    -0.11300
C274        C  0.41790165  0.92124797  0.78261563     0.04200
C275        C  0.41936831  0.95796865  0.78384905    -0.11800
C276        C  0.43827172  0.97532941  0.80277976     0.19100
C277        C  0.45363512  0.95509315  0.82140961    -0.08800
C278        C  0.45210103  0.91827719  0.82026246    -0.01800
H279        H  0.40582183  0.97319415  0.76980109     0.05600
C280        C  0.44144238  0.01441250  0.80255398     0.21100
H281        H  0.46513693  0.90322757  0.83450495     0.10800
C282        C  0.41852769  0.03389515  0.81936692    -0.15200
C283        C  0.42008659  0.07074887  0.81934224     0.03800
C284        C  0.44413937  0.08894162  0.80187288    -0.10500
C285        C  0.46642539  0.06938631  0.78486909    -0.00500
C286        C  0.46561643  0.03260142  0.78517266    -0.05700
H287        H  0.39885669  0.02033325  0.83248132     0.06800
H288        H  0.48527451  0.08279538  0.77139222     0.10200
Br289      Br  0.47878354  0.97617366  0.84844705    -0.05400
Br290      Br  0.38964855  0.90117757  0.75598575    -0.02300
Br291      Br  0.38643013  0.09439080  0.84289870     0.00500
Br292      Br  0.49951220  0.00865307  0.76179375    -0.03900
C293        C  0.94156393  0.78154413  0.64192152    -0.11300
C294        C  0.95867414  0.77247776  0.62008829     0.04200
C295        C  0.95962645  0.79764939  0.60258419    -0.11800
C296        C  0.94336477  0.83168531  0.60639356     0.19100
C297        C  0.92540822  0.84051463  0.62789896    -0.08800
C298        C  0.92506383  0.81569580  0.64550220    -0.01800
H299        H  0.97375592  0.79084752  0.58604358     0.05600
C300        C  0.94725694  0.85840393  0.58820685     0.21100
H301        H  0.91140339  0.82308365  0.66203028     0.10800
C302        C  0.91146924  0.86229651  0.57250934    -0.15200
C303        C  0.91337442  0.88886419  0.55593852     0.03800
C304        C  0.95159135  0.91181457  0.55498954    -0.10500
C305        C  0.98728758  0.90782464  0.57069908    -0.00500
C306        C  0.98538124  0.88133828  0.58721918    -0.05700
H307        H  0.88179393  0.84495788  0.57337544     0.06800
H308        H  0.01684722  0.92530054  0.56998981     0.10200
Br309      Br  0.90094688  0.88625802  0.63382540    -0.05400
Br310      Br  0.98368973  0.72710363  0.61338470    -0.02300
Br311      Br  0.86276387  0.89350980  0.53539040     0.00500
Br312      Br  0.03541381  0.87748631  0.60820011    -0.03900
C313        C  0.96953586  0.09362675  0.55887122    -0.11300
C314        C  0.93699935  0.12072164  0.55828791     0.04200
C315        C  0.93639307  0.14602039  0.57556629    -0.11800
C316        C  0.96744256  0.14450079  0.59374260     0.19100
C317        C  0.99937975  0.11698903  0.59460776    -0.08800
C318        C  0.00048499  0.09198180  0.57711461    -0.01800
H319        H  0.91103562  0.16661317  0.57506934     0.05600
C320        C  0.96392062  0.17053884  0.61234364     0.21100
H321        H  0.02545709  0.07112248  0.57773940     0.10800
C322        C  0.94724567  0.15947514  0.63364705    -0.15200
C323        C  0.94273291  0.18314222  0.65172533     0.03800
C324        C  0.95515903  0.21893300  0.64861184    -0.10500
C325        C  0.97081841  0.23005714  0.62699489    -0.00500
C326        C  0.97536880  0.20620917  0.60896644    -0.05700
H327        H  0.93740905  0.13218064  0.63616619     0.06800
H328        H  0.98057104  0.25729079  0.62419615     0.10200
Br329      Br  0.04211289  0.11261435  0.61926592    -0.05400
Br330      Br  0.89171029  0.12344902  0.53470014    -0.02300
Br331      Br  0.91739483  0.16460860  0.67965347     0.00500
Br332      Br  0.99911648  0.22326781  0.58036647    -0.03900
C333        C  0.03810139  0.78965064  0.35215900    -0.11300
C334        C  0.05344476  0.78479214  0.37485333     0.04200
C335        C  0.04566445  0.81090141  0.39121366    -0.11800
C336        C  0.02289165  0.84185458  0.38543133     0.19100
C337        C  0.00853913  0.84719175  0.36286944    -0.08800
C338        C  0.01616665  0.82127521  0.34648618    -0.01800
H339        H  0.05702460  0.80692845  0.40861848     0.05600
C340        C  0.01259558  0.86770943  0.40335093     0.21100
H341        H  0.00424166  0.82581228  0.32924353     0.10800
C342        C  0.04463331  0.89429193  0.40828182    -0.15200
C343        C  0.03565529  0.91898119  0.42533909     0.03800
C344        C  0.99369251  0.91759604  0.43736494    -0.10500
C345        C  0.96158398  0.89100816  0.43231825    -0.00500
C346        C  0.97105961  0.86587398  0.41560493    -0.05700
H347        H  0.07688137  0.89551987  0.39904558     0.06800
H348        H  0.92949522  0.88951843  0.44167593     0.10200
Br349      Br  0.97782249  0.88931758  0.35382630    -0.05400
Br350      Br  0.08620392  0.74406912  0.38479058    -0.02300
Br351      Br  0.08255079  0.95299033  0.43252245     0.00500
Br352      Br  0.92715727  0.82885591  0.41035786    -0.03900
C353        C  0.04348304  0.22437398  0.35343137    -0.11300
C354        C  0.05201416  0.18806062  0.35047254     0.04200
C355        C  0.04330146  0.16452382  0.36837637    -0.11800
C356        C  0.02861198  0.17641234  0.38979699     0.19100
C357        C  0.02490823  0.21284082  0.39354085    -0.08800
C358        C  0.03105437  0.23636810  0.37531213    -0.01800
H359        H  0.04862147  0.13668445  0.36565436     0.05600
C360        C  0.01927316  0.15024223  0.40807060     0.21100
H361        H  0.02640095  0.26418482  0.37835928     0.10800
C362        C  0.05484750  0.12825461  0.41521448    -0.15200
C363        C  0.04686032  0.10192321  0.43147908     0.03800
C364        C  0.00302712  0.09781467  0.44126169    -0.10500
C365        C  0.96729995  0.11948176  0.43409127    -0.00500
C366        C  0.97487281  0.14514534  0.41730034    -0.05700
H367        H  0.08880723  0.13128592  0.40785324     0.06800
H368        H  0.93320526  0.11575515  0.44116883     0.10200
Br369      Br  0.01509221  0.23173063  0.42352316    -0.05400
Br370      Br  0.07912453  0.16873023  0.32334079    -0.02300
Br371      Br  0.09623051  0.07140880  0.43947693     0.00500
Br372      Br  0.92278024  0.17039906  0.40631732    -0.03900
C373        C  0.06140905  0.41283811  0.29826699    -0.11300
C374        C  0.08936934  0.43107957  0.31408210     0.04200
C375        C  0.09129136  0.46788836  0.31372774    -0.11800
C376        C  0.06552918  0.48712385  0.29796546     0.19100
C377        C  0.03820766  0.46899412  0.28198518    -0.08800
C378        C  0.03658110  0.43224155  0.28214794    -0.01800
H379        H  0.11296341  0.48164178  0.32584847     0.05600
C380        C  0.06702471  0.52603755  0.29858689     0.21100
H381        H  0.01494685  0.41877950  0.26987973     0.10800
C382        C  0.08639506  0.54467094  0.28018886    -0.15200
C383        C  0.08644386  0.58146834  0.27974709     0.06200
C384        C  0.06670470  0.60034525  0.29809493    -0.10500
C385        C  0.04860065  0.58151338  0.31678787    -0.00500
C386        C  0.04864069  0.54475762  0.31715002    -0.05700
H387        H  0.10136903  0.53043776  0.26602753     0.06800
H388        H  0.03332953  0.59538766  0.33101344     0.10200
Br389      Br  0.00071068  0.49325219  0.26033072    -0.05400
Br390      Br  0.12766628  0.40755032  0.33573579    -0.02300
Br391      Br  0.11557650  0.60385830  0.25394527     0.00500
Br392      Br  0.02133377  0.52130650  0.34294753    -0.03900
C393        C  0.19079468  0.74396493  0.27206622    -0.11300
C394        C  0.22111141  0.76465947  0.28529238     0.04200
C395        C  0.26610784  0.77057906  0.27770682    -0.11800
C396        C  0.28136544  0.75642617  0.25696795     0.19100
C397        C  0.25084728  0.73636732  0.24355372    -0.08800
C398        C  0.20589626  0.73043434  0.25110453    -0.01800
H399        H  0.28922442  0.78647657  0.28793246     0.05600
C400        C  0.32925988  0.76270907  0.24961320     0.21100
H401        H  0.18303995  0.71435272  0.24085229     0.10800
C402        C  0.36462815  0.74403085  0.26007362    -0.15200
C403        C  0.41026851  0.74821794  0.25285606     0.03800
C404        C  0.42099980  0.77141015  0.23460514    -0.10500
C405        C  0.38525154  0.79074533  0.22467954    -0.00500
C406        C  0.33992267  0.78678192  0.23213901    -0.05700
H407        H  0.35653280  0.72567455  0.27371402     0.06800
H408        H  0.39248963  0.80920506  0.21099293     0.10200
Br409      Br  0.26943391  0.71561225  0.21518282    -0.05400
Br410      Br  0.20217668  0.78711041  0.31310692    -0.02300
Br411      Br  0.45518145  0.72038461  0.26822066     0.00500
Br412      Br  0.29364699  0.81512469  0.21822773    -0.03900
C413        C  0.69343565  0.76234272  0.23005410    -0.11300
C414        C  0.70392220  0.75555316  0.25324681     0.04200
C415        C  0.74937630  0.74910724  0.25963524    -0.11800
C416        C  0.78488015  0.74921476  0.24339379     0.19100
C417        C  0.77440746  0.75490128  0.22029413    -0.08800
C418        C  0.72926508  0.76155097  0.21385610    -0.01800
H419        H  0.75719183  0.74428128  0.27743858     0.05600
C420        C  0.83243266  0.74244663  0.25077621     0.21100
H421        H  0.72224532  0.76595594  0.19593203     0.10800
C422        C  0.84406319  0.70854367  0.25800995    -0.15200
C423        C  0.88859111  0.70114217  0.26526703     0.03800
C424        C  0.92220318  0.72809476  0.26555525    -0.10500
C425        C  0.91081330  0.76177592  0.25780270    -0.00500
C426        C  0.86628828  0.76919029  0.25062433    -0.05700
H427        H  0.81843878  0.68770561  0.25784072     0.06800
H428        H  0.93621494  0.78277083  0.25811768     0.10200
Br429      Br  0.82042305  0.75282618  0.19680083    -0.05400
Br430      Br  0.65883155  0.75542858  0.27726086    -0.02300
Br431      Br  0.90226988  0.65344147  0.27334791     0.00500
Br432      Br  0.85305332  0.81661564  0.24184277    -0.03900
C433        C  0.18751067  0.27142625  0.27023431    -0.11300
C434        C  0.19975133  0.26673579  0.24704415     0.04200
C435        C  0.24476251  0.25749734  0.24128806    -0.11800
C436        C  0.27787461  0.25185673  0.25822594     0.19100
C437        C  0.26560559  0.25618649  0.28130054    -0.08800
C438        C  0.22110529  0.26622543  0.28706829    -0.01800
H439        H  0.25401898  0.25458076  0.22345209     0.05600
C440        C  0.32515004  0.24198660  0.25152035     0.21100
H441        H  0.21250627  0.26916738  0.30498027     0.10800
C442        C  0.36178457  0.26474764  0.25667115    -0.15200
C443        C  0.40678948  0.25690961  0.25013507     0.03800
C444        C  0.41587715  0.22584984  0.23765848    -0.10500
C445        C  0.37894226  0.20279036  0.23290780    -0.00500
C446        C  0.33407889  0.21050427  0.23981619    -0.05700
H447        H  0.35518139  0.28909529  0.26563505     0.06800
H448        H  0.38487976  0.17860940  0.22365383     0.10200
Br449      Br  0.30763821  0.24683039  0.30567136    -0.05400
Br450      Br  0.15760688  0.27328423  0.22233396    -0.02300
Br451      Br  0.45305689  0.29099885  0.25796309     0.00500
Br452      Br  0.28608688  0.17699500  0.23337484    -0.03900
C453        C  0.68983384  0.23057000  0.22911018    -0.11300
C454        C  0.72297733  0.24455967  0.21369134     0.04200
C455        C  0.76730750  0.25265474  0.22131085    -0.11800
C456        C  0.78006150  0.24658630  0.24400122     0.19100
C457        C  0.74752595  0.23222965  0.25932039    -0.08800
C458        C  0.70282895  0.22470978  0.25190708    -0.01800
H459        H  0.79199187  0.26403802  0.20947106     0.05600
C460        C  0.82681754  0.25672995  0.25163493     0.21100
H461        H  0.67839690  0.21354958  0.26394761     0.10800
C462        C  0.83183165  0.28384378  0.26762529    -0.15200
C463        C  0.87504325  0.29372395  0.27585650     0.03800
C464        C  0.91485923  0.27671982  0.26767193    -0.10500
C465        C  0.90972090  0.25016708  0.25111987    -0.00500
C466        C  0.86624028  0.23992461  0.24326472    -0.05700
H467        H  0.80170492  0.29722003  0.27392939     0.06800
H468        H  0.93953256  0.23647628  0.24475768     0.10200
Br469      Br  0.76341292  0.22099844  0.29025882    -0.05400
Br470      Br  0.71023997  0.25479239  0.18221196    -0.02300
Br471      Br  0.87632679  0.33105033  0.29792606     0.00500
Br472      Br  0.86212961  0.20141094  0.22220823    -0.03900
C473        C  0.55227616  0.08827365  0.20365607    -0.11300
C474        C  0.53930193  0.06749223  0.22273051     0.04200
C475        C  0.54143245  0.03081285  0.22145290    -0.11800
C476        C  0.55695034  0.01415154  0.20158511     0.19100
C477        C  0.56969500  0.03467309  0.18253681    -0.08800
C478        C  0.56679676  0.07136169  0.18357968    -0.01800
H479        H  0.53099679  0.01512979  0.23608068     0.05600
C480        C  0.55902196  0.97531509  0.20095931     0.21100
H481        H  0.57719922  0.08675588  0.16882548     0.10800
C482        C  0.52786234  0.95660385  0.18730121    -0.15200
C483        C  0.52797974  0.91982026  0.18668596     0.03800
C484        C  0.56027778  0.90108642  0.19974322    -0.10500
C485        C  0.59134743  0.91998680  0.21346262    -0.00500
C486        C  0.59078636  0.95673163  0.21423425    -0.05700
H487        H  0.50266370  0.97073372  0.17743000     0.06800
H488        H  0.61614210  0.90611421  0.22373333     0.10200
Br489      Br  0.59374516  0.01371014  0.15526630    -0.05400
Br490      Br  0.51665004  0.08712349  0.25075702    -0.02300
Br491      Br  0.48052340  0.89703569  0.16931354     0.00500
Br492      Br  0.63420852  0.98038500  0.23356161    -0.03900
C493        C  0.54327253  0.27333348  0.14703495    -0.11300
C494        C  0.54182370  0.26255254  0.12387464     0.04200
C495        C  0.54105154  0.28786907  0.10641803    -0.11800
C496        C  0.54224453  0.32393950  0.11143336     0.19100
C497        C  0.54411141  0.33465810  0.13440414    -0.08800
C498        C  0.54440996  0.30957971  0.15183126    -0.01800
H499        H  0.53918460  0.27937326  0.08878379     0.05600
C500        C  0.53982445  0.35010521  0.09266179     0.21100
H501        H  0.54607569  0.31871463  0.16932786     0.10800
C502        C  0.50151617  0.37201989  0.09137371    -0.15200
C503        C  0.49849636  0.39786183  0.07446367     0.03800
C504        C  0.53395746  0.40197466  0.05826727    -0.10500
C505        C  0.57195159  0.37964594  0.05920032    -0.00500
C506        C  0.57513950  0.35386089  0.07627055    -0.05700
H507        H  0.47393712  0.36913217  0.10371427     0.06800
H508        H  0.59935612  0.38258151  0.04677442     0.10200
Br509      Br  0.54800910  0.38329185  0.14298352    -0.05400
Br510      Br  0.53991845  0.21417579  0.11454164    -0.02300
Br511      Br  0.44508923  0.42682551  0.07397974     0.00500
Br512      Br  0.62910661  0.32546666  0.07716506    -0.03900
C513        C  0.53720772  0.58426168  0.05955125    -0.11300
C514        C  0.49901711  0.59385568  0.07280503     0.04200
C515        C  0.50397754  0.61907874  0.08995733    -0.11800
C516        C  0.54672700  0.63502443  0.09405067     0.19100
C517        C  0.58496532  0.62542723  0.08079883    -0.08800
C518        C  0.57997512  0.60022577  0.06358355    -0.01800
H519        H  0.47442635  0.62638524  0.10010016     0.05600
C520        C  0.55069031  0.66177716  0.11214926     0.21100
H521        H  0.60939642  0.59304331  0.05331358     0.10800
C522        C  0.57322071  0.65338411  0.13247799    -0.15200
C523        C  0.57698582  0.67795734  0.15012257     0.03800
C524        C  0.55730276  0.71157921  0.14762954    -0.10500
C525        C  0.53578542  0.72013035  0.12694582    -0.00500
C526        C  0.53228816  0.69549737  0.10930604    -0.05700
H527        H  0.58808603  0.62759467  0.13456770     0.06800
H528        H  0.52084097  0.74583182  0.12462423     0.10200
Br529      Br  0.64411459  0.64679131  0.08534579    -0.05400
Br530      Br  0.43952630  0.57337784  0.06774000    -0.02300
Br531      Br  0.61161143  0.66440043  0.17651459     0.00500
Br532      Br  0.50276757  0.70901853  0.08145295    -0.03900
C533        C  0.49572296  0.40570184  0.94075853    -0.11300
C534        C  0.53298717  0.38551586  0.93326087     0.04200
C535        C  0.52660207  0.36064956  0.91597803    -0.11800
C536        C  0.48328065  0.35553456  0.90612169     0.19100
C537        C  0.44576149  0.37514785  0.91406527    -0.08800
C538        C  0.45231004  0.40032737  0.93112681    -0.01800
H539        H  0.55548874  0.34536205  0.91012929     0.05600
C540        C  0.47771596  0.32918505  0.88786116     0.21100
H541        H  0.42342584  0.41549658  0.93711141     0.10800
C542        C  0.48088394  0.29343984  0.89329524    -0.15200
C543        C  0.47550411  0.26758956  0.87649622     0.03800
C544        C  0.46605422  0.27753979  0.85367312    -0.10500
C545        C  0.46359849  0.31361409  0.84838073    -0.00500
C546        C  0.46990456  0.33928091  0.86512835    -0.05700
H547        H  0.48774199  0.28563171  0.91074907     0.06800
H548        H  0.45731129  0.32211506  0.83101991     0.10200
Br549      Br  0.38476786  0.36730395  0.90284657    -0.05400
Br550      Br  0.59298309  0.39145991  0.94612545    -0.02300
Br551      Br  0.48326340  0.21975232  0.88616476     0.00500
Br552      Br  0.46967272  0.38777175  0.85594408    -0.03900
C553        C  0.45106841  0.71275721  0.85435353    -0.11300
C554        C  0.44120717  0.72168782  0.87731627     0.04200
C555        C  0.45059671  0.69778269  0.89488768    -0.11800
C556        C  0.46863991  0.66459586  0.89005248     0.19100
C557        C  0.47576257  0.65479739  0.86717798    -0.08800
C558        C  0.46770906  0.67890605  0.84963900    -0.01800
H559        H  0.44330034  0.70495305  0.91242702     0.05600
C560        C  0.47736841  0.63967779  0.90891869     0.21100
H561        H  0.47449171  0.67098669  0.83219408     0.10800
C562        C  0.43994261  0.62436453  0.92044994    -0.15200
C563        C  0.44668051  0.59892299  0.93733510     0.03800
C564        C  0.49141615  0.58844384  0.94288163    -0.10500
C565        C  0.52897157  0.60454277  0.93188864    -0.00500
C566        C  0.52226577  0.63010294  0.91503509    -0.05700
H567        H  0.40534841  0.63179357  0.91599936     0.06800
H568        H  0.56351211  0.59697898  0.93633729     0.10200
Br569      Br  0.49404272  0.60808106  0.85907409    -0.05400
Br570      Br  0.41212368  0.76477982  0.88592407    -0.02300
Br571      Br  0.39393598  0.57907067  0.95238375     0.00500
Br572      Br  0.57527652  0.65143376  0.90100847    -0.03900
loop_ 
_geom_bond_atom_site_label_1 
_geom_bond_atom_site_label_2 
_geom_bond_distance 
_geom_bond_site_symmetry_2 
_ccdc_geom_bond_type 
N1            C6   1.353       .  A
N1            C5   1.351       .  A
N1           H33   1.040       .  S
N2            C9   1.350       .  A
N2           C10   1.353   1_556  A
N3            C8   1.352       .  A
N3            C7   1.354       .  A
N3           H34   1.040       .  S
N4           C11   1.352   1_554  A
N4           C12   1.350       .  A
C5           C13   1.388       .  A
C5           C21   1.415       .  A
C6           C22   1.415       .  A
C6           C14   1.387       .  A
C7           C15   1.386       .  A
C7           C24   1.416       .  A
C8           C23   1.416       .  A
C8           C16   1.388       .  A
C9           C21   1.413       .  A
C9           C17   1.387       .  A
C10          C24   1.413       .  A
C10          C18   1.385       .  A
C11          C19   1.385       .  A
C11          C22   1.412       .  A
C12          C20   1.387       .  A
C12          C23   1.414       .  A
C13          C14   1.375       .  A
C13          H25   1.082       .  S
C14          H26   1.082       .  S
C15          C16   1.376       .  A
C15          H27   1.082       .  S
C16          H28   1.082       .  S
C17          C18   1.372   1_556  A
C17          H29   1.082       .  S
C18          H30   1.082       .  S
C19          C20   1.372   1_556  A
C19          H31   1.082       .  S
C20          H32   1.082       .  S
C21         C533   1.480       .  S
C22         C564   1.486       .  S
C23         C513   1.481       .  S
C24         C504   1.490       .  S
O35          C38   1.268       .  A
O35         Cd40   2.511       .  S
C36         C453   1.490       .  S
C36          O45   1.262       .  A
C36          O41   1.269       .  A
O37          C43   1.267       .  A
O37         Cd40   2.481       .  S
C38         C444   1.493       .  S
C38          O46   1.265       .  A
C39         C493   1.489       .  S
C39          O44   1.267       .  A
C39          O42   1.266       .  A
Cd40         O47   2.452       .  S
Cd40         O46   2.470       .  S
Cd40         O45   2.458       .  S
Cd40         O41   2.515       .  S
Cd40         O44   2.489       .  S
Cd40         O42   2.441       .  S
C43         C473   1.483       .  S
C43          O47   1.265       .  A
O48          C51   1.267       .  A
O48         Cd53   2.507       .  S
C49         C413   1.489       .  S
C49          O58   1.266       .  A
C49          O54   1.269       .  A
O50          C56   1.268       .  A
O50         Cd53   2.482       .  S
C51         C404   1.488       .  S
C51          O59   1.263       .  A
C52         C484   1.480       .  S
C52          O57   1.266       .  A
C52          O55   1.265       .  A
Cd53         O60   2.434       .  S
Cd53         O59   2.441       .  S
Cd53         O58   2.436       .  S
Cd53         O54   2.483       .  S
Cd53         O57   2.470       .  S
Cd53         O55   2.454       .  S
C56         C524   1.479       .  S
C56          O60   1.263       .  A
O61          C64   1.268       .  A
O61         Cd66   2.500       .  S
C62         C464   1.488       .  S
C62          O71   1.264       .  A
C62          O67   1.269       .  A
O63          C69   1.268       .  A
O63         Cd66   2.490       .  S
C64         C433   1.486       .  S
C64          O72   1.264       .  A
C65         C373   1.482       .  S
C65          O70   1.266       .  A
C65          O68   1.266       .  A
Cd66         O73   2.442       .  S
Cd66         O72   2.435       .  S
Cd66         O71   2.449   1_455  S
Cd66         O67   2.493   1_455  S
Cd66         O70   2.475       .  S
Cd66         O68   2.459       .  S
C69         C353   1.488       .  S
C69          O73   1.263       .  A
O74          C77   1.268   1_455  A
O74         Cd79   2.469       .  S
C75         C393   1.473       .  S
C75          O84   1.263       .  A
C75          O80   1.268       .  A
O76          C82   1.268       .  A
O76         Cd79   2.480       .  S
C77         C424   1.474       .  S
C77          O85   1.265       .  A
C78         C384   1.482       .  S
C78          O83   1.269       .  A
C78          O81   1.263       .  A
Cd79         O86   2.425       .  S
Cd79         O85   2.434   1_455  S
Cd79         O84   2.434       .  S
Cd79         O80   2.471       .  S
Cd79         O83   2.473       .  S
Cd79         O81   2.431       .  S
C82         C333   1.483       .  S
C82          O86   1.265       .  A
N87          C92   1.353       .  A
N87          C91   1.353   1_545  A
N87         H119   1.039       .  S
N88          C95   1.350       .  A
N88          C96   1.350       .  A
N89          C94   1.352       .  A
N89          C93   1.351   1_545  A
N89         H120   1.040   1_655  S
N90          C97   1.349       .  A
N90          C98   1.350       .  A
C91          C99   1.386       .  A
C91         C107   1.414       .  A
C92         C108   1.416       .  A
C92         C100   1.387       .  A
C93         C101   1.386       .  A
C93         C110   1.411       .  A
C94         C109   1.412       .  A
C94         C102   1.387       .  A
C95         C107   1.411       .  A
C95         C103   1.386       .  A
C96         C110   1.411       .  A
C96         C104   1.386       .  A
C97         C105   1.387   1_655  A
C97         C108   1.412       .  A
C98         C106   1.386   1_655  A
C98         C109   1.410       .  A
C99         C100   1.377   1_565  A
C99         H111   1.082       .  S
C100        H112   1.082       .  S
C101        C102   1.376   1_565  A
C101        H113   1.082       .  S
C102        H114   1.082       .  S
C103        C104   1.372       .  A
C103        H115   1.082       .  S
C104        H116   1.082   1_655  S
C105        C106   1.374       .  A
C105        H117   1.082       .  S
C106        H118   1.082       .  S
C107        C304   1.483       .  S
C108        C313   1.485       .  S
C109        C364   1.482   1_655  S
C110        C344   1.484       .  S
O121        C124   1.268       .  A
O121       Cd126   2.496       .  S
C122        C233   1.492       .  S
C122        O131   1.262       .  A
C122        O127   1.269       .  A
O123        C129   1.266       .  A
O123       Cd126   2.484       .  S
C124        C264   1.490       .  S
C124        O132   1.264       .  A
C125        C544   1.486       .  S
C125        O130   1.267       .  A
C125        O128   1.266       .  A
Cd126       O133   2.467       .  S
Cd126       O132   2.444       .  S
Cd126       O131   2.442       .  S
Cd126       O127   2.509       .  S
Cd126       O130   2.466       .  S
Cd126       O128   2.434       .  S
C129        C284   1.484       .  S
C129        O133   1.265       .  A
O134        C137   1.268       .  A
O134       Cd139   2.499       .  S
C135        C224   1.486       .  S
C135        O144   1.263       .  A
C135        O140   1.268       .  A
O136        C142   1.267       .  A
O136       Cd139   2.492       .  S
C137        C204   1.493       .  S
C137        O145   1.265       .  A
C138        C553   1.487       .  S
C138        O143   1.268       .  A
C138        O141   1.267       .  A
Cd139       O146   2.457       .  S
Cd139       O145   2.468       .  S
Cd139       O144   2.457       .  S
Cd139       O140   2.498       .  S
Cd139       O143   2.466       .  S
Cd139       O141   2.454       .  S
C142        C273   1.487       .  S
C142        O146   1.263       .  A
O147        C150   1.268       .  A
O147       Cd152   2.495       .  S
C148        C244   1.487       .  S
C148        O157   1.264       .  A
C148        O153   1.269       .  A
O149        C155   1.267       .  A
O149       Cd152   2.483       .  S
C150        C253   1.484       .  S
C150        O158   1.263       .  A
C151        C173   1.481       .  S
C151        O156   1.268       .  A
C151        O154   1.266       .  A
Cd152       O159   2.443       .  S
Cd152       O158   2.466       .  S
Cd152       O157   2.468   1_655  S
Cd152       O153   2.507   1_655  S
Cd152       O156   2.465       .  S
Cd152       O154   2.448       .  S
C155        C324   1.483       .  S
C155        O159   1.262       .  A
O160        C163   1.268   1_655  A
O160       Cd165   2.497       .  S
C161        C213   1.485       .  S
C161        O170   1.265       .  A
C161        O166   1.268       .  A
O162        C168   1.265       .  A
O162       Cd165   2.466       .  S
C163        C193   1.486       .  S
C163        O171   1.263       .  A
C164        C184   1.481       .  S
C164        O169   1.266       .  A
C164        O167   1.267       .  A
Cd165       O172   2.455       .  S
Cd165       O171   2.465   1_655  S
Cd165       O170   2.450       .  S
Cd165       O166   2.496       .  S
Cd165       O169   2.465       .  S
Cd165       O167   2.458       .  S
C168        C293   1.480       .  S
C168        O172   1.265       .  A
C173        C174   1.413       .  A
C173        C178   1.407       .  A
C174        C175   1.396       .  A
C174       Br190   1.920   1_655  S
C175        C176   1.401       .  A
C175        H179   1.084       .  S
C176        C177   1.407       .  A
C176        C180   1.478       .  S
C177        C178   1.400       .  A
C177       Br189   1.919       .  S
C178        H181   1.083       .  S
C180        C182   1.401       .  A
C180        C186   1.407       .  A
C182        C183   1.399       .  A
C182        H187   1.084       .  S
C183        C184   1.415       .  A
C183       Br191   1.920       .  S
C184        C185   1.405       .  A
C185        C186   1.397       .  A
C185        H188   1.083       .  S
C186       Br192   1.920       .  S
C193        C194   1.415       .  A
C193        C198   1.405       .  A
C194        C195   1.402       .  A
C194       Br210   1.920       .  S
C195        C196   1.403       .  A
C195        H199   1.084       .  S
C196        C197   1.411       .  A
C196        C200   1.490       .  S
C197        C198   1.402       .  A
C197       Br209   1.919       .  S
C198        H201   1.083       .  S
C200        C202   1.405       .  A
C200        C206   1.408       .  A
C202        C203   1.405       .  A
C202        H207   1.083       .  S
C203        C204   1.416       .  A
C203       Br211   1.920       .  S
C204        C205   1.408       .  A
C205        C206   1.401       .  A
C205        H208   1.083       .  S
C206       Br212   1.920       .  S
C213        C214   1.415       .  A
C213        C218   1.407       .  A
C214        C215   1.402       .  A
C214       Br230   1.919       .  S
C215        C216   1.403       .  A
C215        H219   1.084       .  S
C216        C217   1.406       .  A
C216        C220   1.480       .  S
C217        C218   1.398       .  A
C217       Br229   1.920       .  S
C218        H221   1.083       .  S
C220        C222   1.402       .  A
C220        C226   1.406       .  A
C222        C223   1.400       .  A
C222        H227   1.084       .  S
C223        C224   1.413       .  A
C223       Br231   1.918       .  S
C224        C225   1.409       .  A
C225        C226   1.400       .  A
C225        H228   1.083       .  S
C226       Br232   1.920       .  S
C233        C234   1.420       .  A
C233        C238   1.408       .  A
C234        C235   1.402       .  A
C234       Br250   1.923       .  S
C235        C236   1.401       .  A
C235        H239   1.084       .  S
C236        C237   1.408       .  A
C236        C240   1.488       .  S
C237        C238   1.403       .  A
C237       Br249   1.918       .  S
C238        H241   1.083       .  S
C240        C242   1.403       .  A
C240        C246   1.410       .  A
C242        C243   1.403       .  A
C242        H247   1.083       .  S
C243        C244   1.414       .  A
C243       Br251   1.920       .  S
C244        C245   1.406       .  A
C245        C246   1.404       .  A
C245        H248   1.083       .  S
C246       Br252   1.919       .  S
C253        C254   1.415       .  A
C253        C258   1.404       .  A
C254        C255   1.402       .  A
C254       Br270   1.921       .  S
C255        C256   1.402       .  A
C255        H259   1.084       .  S
C256        C257   1.409       .  A
C256        C260   1.484       .  S
C257        C258   1.400       .  A
C257       Br269   1.919       .  S
C258        H261   1.083       .  S
C260        C262   1.403       .  A
C260        C266   1.407       .  A
C262        C263   1.404       .  A
C262        H267   1.084       .  S
C263        C264   1.416       .  A
C263       Br271   1.920       .  S
C264        C265   1.409       .  A
C265        C266   1.398       .  A
C265        H268   1.083       .  S
C266       Br272   1.920       .  S
C273        C274   1.415       .  A
C273        C278   1.407       .  A
C274        C275   1.399       .  A
C274       Br290   1.921       .  S
C275        C276   1.403       .  A
C275        H279   1.084       .  S
C276        C277   1.411       .  A
C276        C280   1.488   1_565  S
C277        C278   1.402       .  A
C277       Br289   1.920       .  S
C278        H281   1.083       .  S
C280        C282   1.404       .  A
C280        C286   1.412       .  A
C282        C283   1.402       .  A
C282        H287   1.083       .  S
C283        C284   1.414       .  A
C283       Br291   1.920       .  S
C284        C285   1.405       .  A
C285        C286   1.399       .  A
C285        H288   1.084       .  S
C286       Br292   1.921       .  S
C293        C294   1.415       .  A
C293        C298   1.406       .  A
C294        C295   1.401       .  A
C294       Br310   1.921       .  S
C295        C296   1.401       .  A
C295        H299   1.083       .  S
C296        C297   1.404       .  A
C296        C300   1.474       .  S
C297        C298   1.397       .  A
C297       Br309   1.919       .  S
C298        H301   1.083       .  S
C300        C302   1.402       .  A
C300        C306   1.407       .  A
C302        C303   1.400       .  A
C302        H307   1.083       .  S
C303        C304   1.409       .  A
C303       Br311   1.918       .  S
C304        C305   1.401       .  A
C305        C306   1.396       .  A
C305        H308   1.083   1_655  S
C306       Br312   1.918   1_655  S
C313        C314   1.409       .  A
C313        C318   1.403   1_655  A
C314        C315   1.397       .  A
C314       Br330   1.918       .  S
C315        C316   1.402       .  A
C315        H319   1.083       .  S
C316        C317   1.409       .  A
C316        C320   1.477       .  S
C317        C318   1.399   1_655  A
C317       Br329   1.919   1_655  S
C318        H321   1.083       .  S
C320        C322   1.399       .  A
C320        C326   1.407       .  A
C322        C323   1.397       .  A
C322        H327   1.084       .  S
C323        C324   1.416       .  A
C323       Br331   1.921       .  S
C324        C325   1.407       .  A
C325        C326   1.399       .  A
C325        H328   1.083       .  S
C326       Br332   1.919       .  S
C333        C334   1.416       .  A
C333        C338   1.408       .  A
C334        C335   1.400       .  A
C334       Br350   1.920       .  S
C335        C336   1.400       .  A
C335        H339   1.084       .  S
C336        C337   1.402       .  A
C336        C340   1.471       .  S
C337        C338   1.395       .  A
C337       Br349   1.919   1_455  S
C338        H341   1.083       .  S
C340        C342   1.400       .  A
C340        C346   1.406   1_455  A
C342        C343   1.398       .  A
C342        H347   1.083       .  S
C343        C344   1.410   1_455  A
C343       Br351   1.921       .  S
C344        C345   1.403       .  A
C345        C346   1.398       .  A
C345        H348   1.083       .  S
C346       Br352   1.919       .  S
C353        C354   1.417       .  A
C353        C358   1.408       .  A
C354        C355   1.398       .  A
C354       Br370   1.922       .  S
C355        C356   1.401       .  A
C355        H359   1.084       .  S
C356        C357   1.408       .  A
C356        C360   1.483       .  S
C357        C358   1.401       .  A
C357       Br369   1.919       .  S
C358        H361   1.083       .  S
C360        C362   1.404       .  A
C360        C366   1.412   1_455  A
C362        C363   1.398       .  A
C362        H367   1.083       .  S
C363        C364   1.406       .  A
C363       Br371   1.918       .  S
C364        C365   1.401   1_455  A
C365        C366   1.400       .  A
C365        H368   1.083       .  S
C366       Br372   1.919       .  S
C373        C374   1.414       .  A
C373        C378   1.405       .  A
C374        C375   1.401       .  A
C374       Br390   1.920       .  S
C375        C376   1.403       .  A
C375        H379   1.084       .  S
C376        C377   1.408       .  A
C376        C380   1.481       .  S
C377        C378   1.398       .  A
C377       Br389   1.920       .  S
C378        H381   1.083       .  S
C380        C382   1.402       .  A
C380        C386   1.407       .  A
C382        C383   1.400       .  A
C382        H387   1.084       .  S
C383        C384   1.416       .  A
C383       Br391   1.923       .  S
C384        C385   1.405       .  A
C385        C386   1.398       .  A
C385        H388   1.083       .  S
C386       Br392   1.919       .  S
C393        C394   1.412       .  A
C393        C398   1.402       .  A
C394        C395   1.399       .  A
C394       Br410   1.921       .  S
C395        C396   1.401       .  A
C395        H399   1.083       .  S
C396        C397   1.408       .  A
C396        C400   1.477       .  S
C397        C398   1.398       .  A
C397       Br409   1.918       .  S
C398        H401   1.084       .  S
C400        C402   1.401       .  A
C400        C406   1.404       .  A
C402        C403   1.402       .  A
C402        H407   1.084       .  S
C403        C404   1.416       .  A
C403       Br411   1.919       .  S
C404        C405   1.409       .  A
C405        C406   1.397       .  A
C405        H408   1.083       .  S
C406       Br412   1.920       .  S
C413        C414   1.417       .  A
C413        C418   1.409       .  A
C414        C415   1.403       .  A
C414       Br430   1.921       .  S
C415        C416   1.403       .  A
C415        H419   1.084       .  S
C416        C417   1.405       .  A
C416        C420   1.479       .  S
C417        C418   1.397       .  A
C417       Br429   1.920       .  S
C418        H421   1.083       .  S
C420        C422   1.402       .  A
C420        C426   1.410       .  A
C422        C423   1.399       .  A
C422        H427   1.084       .  S
C423        C424   1.411       .  A
C423       Br431   1.921       .  S
C424        C425   1.402       .  A
C425        C426   1.398       .  A
C425        H428   1.084       .  S
C426       Br432   1.919       .  S
C433        C434   1.414       .  A
C433        C438   1.408       .  A
C434        C435   1.402       .  A
C434       Br450   1.920       .  S
C435        C436   1.405       .  A
C435        H439   1.083       .  S
C436        C437   1.406       .  A
C436        C440   1.484       .  S
C437        C438   1.397       .  A
C437       Br449   1.920       .  S
C438        H441   1.083       .  S
C440        C442   1.402       .  A
C440        C446   1.407       .  A
C442        C443   1.401       .  A
C442        H447   1.084       .  S
C443        C444   1.417       .  A
C443       Br451   1.919       .  S
C444        C445   1.411       .  A
C445        C446   1.402       .  A
C445        H448   1.083       .  S
C446       Br452   1.922       .  S
C453        C454   1.419       .  A
C453        C458   1.407       .  A
C454        C455   1.401       .  A
C454       Br470   1.922       .  S
C455        C456   1.400       .  A
C455        H459   1.084       .  S
C456        C457   1.408       .  A
C456        C460   1.484       .  S
C457        C458   1.402       .  A
C457       Br469   1.920       .  S
C458        H461   1.083       .  S
C460        C462   1.401       .  A
C460        C466   1.408       .  A
C462        C463   1.399       .  A
C462        H467   1.084       .  S
C463        C464   1.417       .  A
C463       Br471   1.921       .  S
C464        C465   1.408       .  A
C465        C466   1.402       .  A
C465        H468   1.083       .  S
C466       Br472   1.919       .  S
C473        C474   1.415       .  A
C473        C478   1.406       .  A
C474        C475   1.399       .  A
C474       Br490   1.921       .  S
C475        C476   1.401       .  A
C475        H479   1.084       .  S
C476        C477   1.407       .  A
C476        C480   1.480   1_545  S
C477        C478   1.400       .  A
C477       Br489   1.919       .  S
C478        H481   1.083       .  S
C480        C482   1.402       .  A
C480        C486   1.407       .  A
C482        C483   1.400       .  A
C482        H487   1.084       .  S
C483        C484   1.414       .  A
C483       Br491   1.921       .  S
C484        C485   1.406       .  A
C485        C486   1.399       .  A
C485        H488   1.083       .  S
C486       Br492   1.919       .  S
C493        C494   1.418       .  A
C493        C498   1.407       .  A
C494        C495   1.404       .  A
C494       Br510   1.920       .  S
C495        C496   1.403       .  A
C495        H499   1.084       .  S
C496        C497   1.407       .  A
C496        C500   1.484       .  S
C497        C498   1.396       .  A
C497       Br509   1.920       .  S
C498        H501   1.083       .  S
C500        C502   1.403       .  A
C500        C506   1.411       .  A
C502        C503   1.398       .  A
C502        H507   1.083       .  S
C503        C504   1.407       .  A
C503       Br511   1.918       .  S
C504        C505   1.405       .  A
C505        C506   1.403       .  A
C505        H508   1.083       .  S
C506       Br512   1.919       .  S
C513        C514   1.406       .  A
C513        C518   1.402       .  A
C514        C515   1.397       .  A
C514       Br530   1.918       .  S
C515        C516   1.402       .  A
C515        H519   1.083       .  S
C516        C517   1.407       .  A
C516        C520   1.474       .  S
C517        C518   1.399       .  A
C517       Br529   1.919       .  S
C518        H521   1.083       .  S
C520        C522   1.400       .  A
C520        C526   1.406       .  A
C522        C523   1.398       .  A
C522        H527   1.084       .  S
C523        C524   1.415       .  A
C523       Br531   1.922       .  S
C524        C525   1.406       .  A
C525        C526   1.399       .  A
C525        H528   1.083       .  S
C526       Br532   1.919       .  S
C533        C534   1.406       .  A
C533        C538   1.401       .  A
C534        C535   1.398       .  A
C534       Br550   1.919       .  S
C535        C536   1.403       .  A
C535        H539   1.083       .  S
C536        C537   1.409       .  A
C536        C540   1.475       .  S
C537        C538   1.397       .  A
C537       Br549   1.919       .  S
C538        H541   1.083       .  S
C540        C542   1.400       .  A
C540        C546   1.405       .  A
C542        C543   1.400       .  A
C542        H547   1.084       .  S
C543        C544   1.417       .  A
C543       Br551   1.921       .  S
C544        C545   1.409       .  A
C545        C546   1.396       .  A
C545        H548   1.083       .  S
C546       Br552   1.921       .  S
C553        C554   1.416       .  A
C553        C558   1.408       .  A
C554        C555   1.402       .  A
C554       Br570   1.921       .  S
C555        C556   1.402       .  A
C555        H559   1.084       .  S
C556        C557   1.406       .  A
C556        C560   1.479       .  S
C557        C558   1.398       .  A
C557       Br569   1.920       .  S
C558        H561   1.083       .  S
C560        C562   1.402       .  A
C560        C566   1.410       .  A
C562        C563   1.398       .  A
C562        H567   1.083       .  S
C563        C564   1.407       .  A
C563       Br571   1.917       .  S
C564        C565   1.403       .  A
C565        C566   1.400       .  A
C565        H568   1.083       .  S
C566       Br572   1.919       .  S
