geometry optimzed in LAMMPS
_audit_creation_date              2020-11-30 
_audit_creation_method            'lammps2cif' 
_symmetry_space_group_name_H-M    'P1' 
_symmetry_Int_Tables_number       1 
_symmetry_cell_setting            triclinic 
loop_ 
_symmetry_equiv_pos_as_xyz 
  x,y,z 
_cell_length_a                    43.02262604064323 
_cell_length_b                    43.03627542033333 
_cell_length_c                    43.03022920691235 
_cell_angle_alpha                 90.15224869809298 
_cell_angle_beta                  90.07219854239688 
_cell_angle_gamma                 89.9958480101689 
loop_ 
_atom_site_label 
_atom_site_type_symbol 
_atom_site_fract_x 
_atom_site_fract_y 
_atom_site_fract_z 
_atom_site_charge 
C1          C  0.51585000  0.24849963  0.25264292     0.00110
C2          C  0.48447658  0.25000448  0.25176499     0.00110
C3          C  0.51543452  0.75396475  0.25504831     0.00110
C4          C  0.48404649  0.75312527  0.25392602     0.00110
C5          C  0.51876858  0.25040729  0.75260215     0.00110
C6          C  0.48736081  0.25140511  0.75304292     0.00110
C7          C  0.25611461  0.25008238  0.51642883     0.00110
C8          C  0.25589756  0.24966723  0.48502418     0.00110
C9          C  0.25360896  0.98551593  0.74780631     0.00110
C10         C  0.25429541  0.01692049  0.74796418     0.00110
O11         O  0.29898104  0.17112766  0.87031442    -0.82250
C12         C  0.33270042  0.23392033  0.75892940     0.97100
O13         O  0.34094578  0.24089882  0.78612094    -0.71370
O14         O  0.29273864  0.24788043  0.82231738    -0.74960
Al15       Al  0.33001256  0.22443769  0.82562338     1.48980
C16         C  0.26638929  0.24065876  0.83291351     0.92350
O17         O  0.25271143  0.17907680  0.79551143    -0.81180
O18         O  0.33042429  0.13218748  0.79752668    -0.74740
Al19       Al  0.27788986  0.17515986  0.83135174     1.90120
O20         O  0.28554148  0.15994212  0.76157034    -0.73810
O21         O  0.36824937  0.17982416  0.78519064    -0.73660
O22         O  0.32166612  0.20750684  0.75279031    -0.79320
O23         O  0.36979735  0.20507028  0.82948756    -0.77520
O24         O  0.31140557  0.19007986  0.81167268    -1.13660
O25         O  0.32238611  0.21632981  0.86827228    -0.72850
C26         C  0.31033495  0.19468444  0.88393021     0.97860
C27         C  0.25876060  0.16963810  0.76852031     0.94260
Al28       Al  0.32544156  0.17123522  0.77744880     1.55560
O29         O  0.26098329  0.21393279  0.84315129    -0.77470
C30         C  0.38365443  0.19326365  0.80634663     0.98430
C31         C  0.30766305  0.11779390  0.80915848     0.93310
O32         O  0.28615113  0.13262342  0.82247374    -0.82790
O33         O  0.17329327  0.36909820  0.79759389    -0.82250
C34         C  0.24118397  0.26303120  0.83249639     0.97100
O35         O  0.24593968  0.28997824  0.84272719    -0.71370
O36         O  0.25215687  0.32423796  0.79483208    -0.74960
Al37       Al  0.22767372  0.32824780  0.83070996     1.48980
C38         C  0.24565392  0.33293771  0.76776853     0.92350
O39         O  0.18371172  0.29439442  0.75269027    -0.81180
O40         O  0.13723548  0.29555128  0.83035922    -0.74740
Al41       Al  0.17921183  0.33033949  0.77741480     1.90120
O42         O  0.16597234  0.26043025  0.78604354    -0.73810
O43         O  0.18550840  0.28597714  0.86815328    -0.73660
O44         O  0.21509217  0.25519933  0.82160694    -0.79320
O45         O  0.20688985  0.33224363  0.86976250    -0.77520
O46         O  0.19440879  0.31216257  0.81143176    -1.13660
O47         O  0.21823407  0.37057882  0.82134433    -0.72850
C48         C  0.19601894  0.38440378  0.80804800     0.97860
C49         C  0.17343080  0.26777328  0.75873279     0.94260
Al50       Al  0.17726012  0.27736360  0.82558377     1.55560
O51         O  0.21874850  0.34249943  0.76092809    -0.77470
C52         C  0.19679742  0.30832236  0.88359147     0.98430
C53         C  0.12237406  0.30678998  0.80763734     0.93310
O54         O  0.13666172  0.32047534  0.78593159    -0.82790
O55         O  0.32280742  0.36671609  0.71807348    -0.82250
C56         C  0.26498711  0.26372392  0.67032087     0.97100
O57         O  0.25718247  0.29005356  0.68065262    -0.71370
O58         O  0.26252303  0.33891305  0.71640465    -0.74960
Al59       Al  0.27971530  0.32768159  0.67714703     1.48980
C60         C  0.26926789  0.33073821  0.74362560     0.92350
O61         O  0.34388966  0.28455482  0.74211388    -0.81180
O62         O  0.37250759  0.28594999  0.68138908    -0.74740
Al63       Al  0.33207798  0.32420684  0.72602307     1.90120
O64         O  0.32623902  0.25146486  0.70759040    -0.73810
O65         O  0.33410368  0.29752903  0.63288222    -0.73660
O66         O  0.29179019  0.25873484  0.65993817    -0.79320
O67         O  0.28827180  0.31970135  0.63462584    -0.77520
O68         O  0.31422099  0.30979329  0.69147149    -1.13660
O69         O  0.29852474  0.36771408  0.67321731    -0.72850
C70         C  0.30987400  0.38183238  0.69649549     0.97860
C71         C  0.33472930  0.25765603  0.73483685     0.94260
Al72       Al  0.33015194  0.27657420  0.67192864     1.55560
O73         O  0.29558873  0.31968426  0.74993137    -0.77470
C74         C  0.31033948  0.30820442  0.61909548     0.98430
C75         C  0.38637611  0.30778487  0.69535356     0.93310
O76         O  0.37114564  0.33012674  0.70666990    -0.82790
O77         O  0.18137494  0.13527767  0.71570319    -0.82250
C78         C  0.24270153  0.23852492  0.67050733     0.97100
O79         O  0.24994827  0.21241005  0.68165399    -0.71370
O80         O  0.24277887  0.16361128  0.71698785    -0.74960
Al81       Al  0.22697827  0.17489170  0.67739374     1.48980
C82         C  0.23518169  0.17124635  0.74413786     0.92350
O83         O  0.16137931  0.21772412  0.74076753    -0.81180
O84         O  0.13497817  0.21803318  0.67882854    -0.74740
Al85       Al  0.17255506  0.17810639  0.72432474     1.90120
O86         O  0.18066413  0.25085458  0.70724123    -0.73810
O87         O  0.17433255  0.20567782  0.63140633    -0.73660
O88         O  0.21604705  0.24365318  0.65995910    -0.79320
O89         O  0.21973420  0.18280402  0.63486737    -0.77520
O90         O  0.19205262  0.19277475  0.69065542    -1.13660
O91         O  0.20816190  0.13521853  0.67234626    -0.72850
C92         C  0.19594644  0.12065657  0.69470417     0.97860
C93         C  0.17137399  0.24444405  0.73418649     0.94260
Al94       Al  0.17739334  0.22634360  0.67092314     1.55560
O95         O  0.20838940  0.18140342  0.74991115    -0.77470
C96         C  0.19839286  0.19445465  0.61852773     0.98430
C97         C  0.11951393  0.19702681  0.69202220     0.93310
O98         O  0.13331195  0.17387898  0.70374958    -0.82790
C99         C  0.01817328  0.25177078  0.75241582     0.00110
C100        C  0.98690696  0.25452356  0.75029046     0.00110
C101        C  0.25056645  0.48541896  0.74794817     0.00110
C102        C  0.25269394  0.51666390  0.75052364     0.00110
C103        C  0.75166596  0.51611849  0.24852172     0.00110
C104        C  0.75015205  0.48473098  0.24754878     0.00110
C105        C  0.75208304  0.24665949  0.98608674     0.00110
C106        C  0.75137156  0.24685061  0.01746986     0.00110
O107        O  0.78540721  0.31708919  0.13454534    -0.82250
C108        C  0.83193687  0.25729623  0.23597798     0.97100
O109        O  0.82312096  0.25053530  0.20894050    -0.71370
O110        O  0.78869193  0.25677959  0.16092542    -0.74960
Al111      Al  0.82706647  0.27459731  0.17262101     1.48980
C112        C  0.76182795  0.26204727  0.17091045     0.92350
O113        O  0.76000330  0.33790386  0.21602671    -0.81180
O114        O  0.82093526  0.36625336  0.21623090    -0.74740
Al115      Al  0.77696928  0.32588819  0.17690368     1.90120
O116        O  0.79360074  0.32028416  0.24989090    -0.73810
O117        O  0.86940282  0.32833998  0.20580282    -0.73660
O118        O  0.84132968  0.28429825  0.24261357    -0.79320
O119        O  0.86924944  0.28361103  0.18155355    -0.77520
O120        O  0.81157312  0.30836745  0.19145972    -1.13660
O121        O  0.83114493  0.29467440  0.13319978    -0.72850
C122        C  0.80744177  0.30519700  0.11923915     0.97860
C123        C  0.76700155  0.33054724  0.24342498     0.94260
Al124      Al  0.82998186  0.32368665  0.22546077     1.55560
O125        O  0.75419773  0.28844164  0.18117749    -0.77470
C126        C  0.88393085  0.30541637  0.19453937     0.98430
C127        C  0.80721550  0.38048944  0.19446300     0.93310
O128        O  0.79577197  0.36554598  0.17183665    -0.82790
O129        O  0.86594038  0.20613550  0.33222855    -0.82250
C130        C  0.75680796  0.16916576  0.26938717     0.97100
O131        O  0.78375099  0.15957094  0.26283200    -0.71370
O132        O  0.81943730  0.20737233  0.25449898    -0.74960
Al133      Al  0.82335176  0.17144013  0.27940857     1.48980
C134        C  0.83000340  0.23398309  0.26047746     0.92350
O135        O  0.78892890  0.24793101  0.32296161    -0.81180
O136        O  0.79538582  0.17156895  0.37166672    -0.74740
Al137      Al  0.82628461  0.22505994  0.32723582     1.90120
O138        O  0.75727607  0.21383177  0.34374192    -0.73810
O139        O  0.78376516  0.13273258  0.32395107    -0.73660
O140        O  0.75033514  0.17864656  0.29625257    -0.79320
O141        O  0.82849600  0.13257835  0.29982231    -0.77520
O142        O  0.80844355  0.19035856  0.31322512    -1.13660
O143        O  0.86603795  0.18077868  0.28793950    -0.72850
C144        C  0.88058502  0.19462788  0.30947748     0.97860
C145        C  0.76258396  0.24054606  0.33340346     0.94260
Al146      Al  0.77484694  0.17517149  0.33243735     1.55560
O147        O  0.83785243  0.24136044  0.28770316    -0.77470
C148        C  0.80571000  0.11803494  0.31121650     0.98430
C149        C  0.80606589  0.19538247  0.38535549     0.93310
O150        O  0.81790051  0.21724738  0.36983614    -0.82790
O151        O  0.67120527  0.36971693  0.29628574    -0.82250
C152        C  0.73746253  0.26289856  0.33289884     0.97100
O153        O  0.74250398  0.28990398  0.34276657    -0.71370
O154        O  0.74951240  0.32399084  0.29469633    -0.74960
Al155      Al  0.72471007  0.32816888  0.33053746     1.48980
C156        C  0.74322511  0.33260102  0.26752539     0.92350
O157        O  0.68083668  0.29376454  0.25267498    -0.81180
O158        O  0.63396625  0.29648201  0.32996610    -0.74740
Al159      Al  0.67660393  0.33026273  0.27685044     1.90120
O160        O  0.66253759  0.26043943  0.28635256    -0.73810
O161        O  0.68182247  0.28658510  0.36823698    -0.73660
O162        O  0.71130724  0.25512620  0.32216054    -0.79320
O163        O  0.70382154  0.33253186  0.36953462    -0.77520
O164        O  0.69139476  0.31228883  0.31121444    -1.13660
O165        O  0.71561442  0.37032422  0.32109587    -0.72850
C166        C  0.69393163  0.38461112  0.30747202     0.97860
C167        C  0.67039112  0.26724954  0.25904126     0.94260
Al168      Al  0.67376201  0.27776717  0.32567643     1.55560
O169        O  0.71628967  0.34182708  0.26040133    -0.77470
C170        C  0.69323343  0.30892075  0.38353313     0.98430
C171        C  0.61933668  0.30721138  0.30685113     0.93310
O172        O  0.63383698  0.32085017  0.28523174    -0.82790
O173        O  0.67981130  0.13392918  0.21783931    -0.82250
C174        C  0.73950779  0.23690150  0.17096806     0.97100
O175        O  0.74697509  0.21077158  0.18186660    -0.71370
O176        O  0.74063937  0.16244077  0.21781321    -0.74960
Al177      Al  0.72418652  0.17324686  0.17815372     1.48980
C178        C  0.73328890  0.17054991  0.24493278     0.92350
O179        O  0.65890338  0.21663426  0.24186681    -0.81180
O180        O  0.63203909  0.21576765  0.18048781    -0.74740
Al181      Al  0.67053325  0.17679436  0.22581634     1.90120
O182        O  0.67786781  0.24945753  0.20790837    -0.73810
O183        O  0.67058555  0.20336003  0.13298373    -0.73660
O184        O  0.71278952  0.24191853  0.16045755    -0.79320
O185        O  0.71620235  0.18077546  0.13544738    -0.77520
O186        O  0.68944210  0.19118424  0.19178862    -1.13660
O187        O  0.70541393  0.13346229  0.17379014    -0.72850
C188        C  0.69397562  0.11912286  0.19670075     0.97860
C189        C  0.66861352  0.24339987  0.23491637     0.94260
Al190      Al  0.67427893  0.22447519  0.17201170     1.55560
O191        O  0.70658628  0.18093054  0.25078037    -0.77470
C192        C  0.69431878  0.19221082  0.11957854     0.98430
C193        C  0.61707395  0.19430302  0.19354589     0.93310
O194        O  0.63136142  0.17161494  0.20553101    -0.82790
C195        C  0.75330000  0.01631250  0.25108761     0.00110
C196        C  0.75198587  0.98493552  0.25176808     0.00110
C197        C  0.75066797  0.25497922  0.48640083     0.00110
C198        C  0.74989201  0.25402286  0.51779011     0.00110
C199        C  0.74940700  0.75466199  0.98540717     0.00110
C200        C  0.74563000  0.75118961  0.01641292     0.00110
O201        O  0.81798224  0.71746677  0.13344471    -0.82250
C202        C  0.76118877  0.66955587  0.23703213     0.97100
O203        O  0.75311583  0.68042702  0.21104874    -0.71370
O204        O  0.75795769  0.71651602  0.16250777    -0.74960
Al205      Al  0.77504853  0.67700275  0.17306496     1.48980
C206        C  0.76518081  0.74369723  0.17057698     0.92350
O207        O  0.84040354  0.74131468  0.21563739    -0.81180
O208        O  0.86859622  0.68051641  0.21355879    -0.74740
Al209      Al  0.82798253  0.72536107  0.17594730     1.90120
O210        O  0.82278731  0.70681477  0.24859709    -0.73810
O211        O  0.82984155  0.63238818  0.20179213    -0.73660
O212        O  0.78811572  0.65922512  0.24152593    -0.79320
O213        O  0.78355469  0.63437151  0.18048113    -0.77520
O214        O  0.80998058  0.69099931  0.19044800    -1.13660
O215        O  0.79307742  0.67297626  0.13280186    -0.72850
C216        C  0.80432633  0.69606954  0.11855033     0.97860
C217        C  0.83137108  0.73401775  0.24254464     0.94260
Al218      Al  0.82628570  0.67124512  0.22325639     1.55560
O219        O  0.79181697  0.74971825  0.18104369    -0.77470
C220        C  0.80586950  0.61873968  0.19135660     0.98430
C221        C  0.88232681  0.69413320  0.19153796     0.93310
O222        O  0.86686684  0.70560545  0.16943737    -0.82790
O223        O  0.82908680  0.79445291  0.36920807    -0.82250
C224        C  0.76356444  0.83213818  0.26245471     0.97100
O225        O  0.75840265  0.84172139  0.28951879    -0.71370
O226        O  0.75073945  0.79359648  0.32336766    -0.74960
Al227      Al  0.77592958  0.82931598  0.32777731     1.48980
C228        C  0.75684516  0.76644236  0.33212609     0.92350
O229        O  0.81882170  0.75143196  0.29297974    -0.81180
O230        O  0.86770217  0.82757977  0.29661358    -0.74740
Al231      Al  0.82333512  0.77523076  0.32976450     1.90120
O232        O  0.83794053  0.78516093  0.26009191    -0.73810
O233        O  0.82001763  0.86710765  0.28695961    -0.73660
O234        O  0.78988974  0.82185936  0.25464902    -0.79320
O235        O  0.79693606  0.86821351  0.33236562    -0.77520
O236        O  0.80922086  0.80990990  0.31195833    -1.13660
O237        O  0.78494288  0.81968201  0.37002551    -0.72850
C238        C  0.80658803  0.80584801  0.38421585     0.97860
C239        C  0.82963272  0.75791092  0.26660623     0.94260
Al240      Al  0.82747092  0.82446999  0.27770552     1.55560
O241        O  0.78369343  0.75926245  0.34137617    -0.77470
C242        C  0.80782168  0.88230012  0.30896061     0.98430
C243        C  0.88136749  0.80393171  0.30761980     0.93310
O244        O  0.86582493  0.78282171  0.32069924    -0.82790
O245        O  0.63396267  0.83071025  0.20844697    -0.82250
C246        C  0.74174289  0.76812671  0.16900831     0.97100
O247        O  0.71472106  0.76162340  0.15951926    -0.71370
O248        O  0.67995171  0.75290982  0.20774505    -0.74960
Al249      Al  0.67537731  0.77816917  0.17217299     1.48980
C250        C  0.67013867  0.75870263  0.23464694     0.92350
O251        O  0.71207546  0.82123363  0.24811305    -0.81180
O252        O  0.70344510  0.87043219  0.17210313    -0.74740
Al253      Al  0.67407945  0.82557579  0.22623726     1.90120
O254        O  0.74272164  0.84256104  0.21349149    -0.73810
O255        O  0.71434785  0.82272908  0.13284849    -0.73660
O256        O  0.74847923  0.79503273  0.17820174    -0.79320
O257        O  0.66948962  0.79880698  0.13351542    -0.77520
O258        O  0.69087271  0.81184849  0.19100019    -1.13660
O259        O  0.63284523  0.78674833  0.18253394    -0.72850
C260        C  0.61886019  0.80815179  0.19713456     0.97860
C261        C  0.73813412  0.83210556  0.24030166     0.94260
Al262      Al  0.72411228  0.83119986  0.17516745     1.55560
O263        O  0.66290512  0.78594043  0.24254060    -0.77470
C264        C  0.69210090  0.81000139  0.11855565     0.98430
C265        C  0.69318671  0.88391247  0.19622871     0.93310
O266        O  0.68222890  0.86816739  0.21837797    -0.82790
O267        O  0.71567163  0.63298266  0.31790019    -0.82250
C268        C  0.66834440  0.73396950  0.25770181     0.97100
O269        O  0.67763755  0.70710600  0.25090046    -0.71370
O270        O  0.71226148  0.65917875  0.25723320    -0.74960
Al271      Al  0.67387137  0.67070753  0.27498081     1.48980
C272        C  0.73912072  0.66921866  0.26244223     0.92350
O273        O  0.74045755  0.71497614  0.33783111    -0.81180
O274        O  0.67978613  0.71483992  0.36646075    -0.74740
Al275      Al  0.72393864  0.67554178  0.32637329     1.90120
O276        O  0.70642749  0.74844845  0.32019819    -0.73810
O277        O  0.63133601  0.70314764  0.32887590    -0.73660
O278        O  0.65853001  0.74026986  0.28460226    -0.79320
O279        O  0.63161726  0.67930633  0.28393623    -0.77520
O280        O  0.68920178  0.68968995  0.30875590    -1.13660
O281        O  0.67004788  0.63135605  0.29511516    -0.72850
C282        C  0.69378472  0.61756209  0.30577058     0.97860
C283        C  0.73315135  0.74226261  0.33032075     0.94260
Al284      Al  0.67039584  0.72350968  0.32394554     1.55560
O285        O  0.74674825  0.67959191  0.28881510    -0.77470
C286        C  0.61684198  0.69191435  0.30587910     0.98430
C287        C  0.69367743  0.69344998  0.38101621     0.93310
O288        O  0.70538650  0.67077168  0.36633473    -0.82790
C289        C  0.75330385  0.74483532  0.48516832     0.00110
C290        C  0.75402810  0.74361428  0.51659303     0.00110
C291        C  0.75229824  0.98559526  0.74603301     0.00110
C292        C  0.75543662  0.01672514  0.74924054     0.00110
O293        O  0.63415371  0.16883783  0.79531346    -0.82250
C294        C  0.74051491  0.23749130  0.83233988     0.97100
O295        O  0.71297344  0.24267072  0.84033520    -0.71370
O296        O  0.67779605  0.24777694  0.79228061    -0.74960
Al297      Al  0.67504758  0.22366951  0.82884158     1.48980
C298        C  0.66966878  0.24056655  0.76509350     0.92350
O299        O  0.70918776  0.17997955  0.75128265    -0.81180
O300        O  0.70889743  0.13287523  0.82801262    -0.74740
Al301      Al  0.67324890  0.17488851  0.77559108     1.90120
O302        O  0.74378092  0.16343604  0.78474572    -0.73810
O303        O  0.71736404  0.18061409  0.86672708    -0.73660
O304        O  0.74868844  0.21135536  0.82185911    -0.79320
O305        O  0.67195287  0.20372001  0.86850024    -0.77520
O306        O  0.69139291  0.19038323  0.80984136    -1.13660
O307        O  0.63307991  0.21321243  0.82034151    -0.72850
C308        C  0.61905748  0.19108999  0.80713969     0.97860
C309        C  0.73630609  0.17130503  0.75757854     0.94260
Al310      Al  0.72642566  0.17337249  0.82426462     1.55560
O311        O  0.66080493  0.21351414  0.75853441    -0.77470
C312        C  0.69551169  0.19255317  0.88223235     0.98430
C313        C  0.69726292  0.11827794  0.80527640     0.93310
O314        O  0.68334670  0.13277280  0.78395632    -0.82790
O315        O  0.79628798  0.36710754  0.83520469    -0.82250
C316        C  0.83311320  0.25911682  0.76849289     0.97100
O317        O  0.84022853  0.28669467  0.76171551    -0.71370
O318        O  0.79167022  0.32295964  0.75689300    -0.74960
Al319      Al  0.82920750  0.32563531  0.78010481     1.48980
C320        C  0.76510914  0.33232696  0.76496455     0.92350
O321        O  0.75497307  0.28968133  0.82629911    -0.81180
O322        O  0.83268847  0.29465066  0.87220961    -0.74740
Al323      Al  0.77777180  0.32704461  0.83048632     1.90120
O324        O  0.79006892  0.25693466  0.84333438    -0.73810
O325        O  0.87032008  0.28563594  0.82325331    -0.73660
O326        O  0.82477177  0.25198596  0.79549114    -0.79320
O327        O  0.86945672  0.32994121  0.79836719    -0.77520
O328        O  0.81202141  0.30972877  0.81443548    -1.13660
O329        O  0.82057912  0.36786505  0.79038189    -0.72850
C330        C  0.80716525  0.38204775  0.81234753     0.97860
C331        C  0.76290706  0.26269916  0.83431647     0.94260
Al332      Al  0.82829604  0.27566056  0.83219621     1.55560
O333        O  0.75919545  0.33891557  0.79269751    -0.77470
C334        C  0.88447287  0.30742158  0.80978165     0.98430
C335        C  0.80959483  0.30552616  0.88679724     0.93310
O336        O  0.78754692  0.31807403  0.87220760    -0.82790
O337        O  0.82326702  0.22000582  0.63436150    -0.82250
C338        C  0.76000331  0.17149515  0.73349075     0.97100
O339        O  0.75397469  0.18269554  0.70718002    -0.71370
O340        O  0.76252733  0.21890513  0.66008928    -0.74960
Al341      Al  0.77858472  0.17912788  0.67103596     1.48980
C342        C  0.76880865  0.24538574  0.67088270     0.92350
O343        O  0.84303127  0.24251051  0.71750937    -0.81180
O344        O  0.86920102  0.18156515  0.71685859    -0.74740
Al345      Al  0.83169906  0.22706633  0.67744580     1.90120
O346        O  0.82249034  0.20878794  0.74958136    -0.73810
O347        O  0.83087461  0.13417638  0.70305990    -0.73660
O348        O  0.78670052  0.16133285  0.73989147    -0.79320
O349        O  0.78611821  0.13621754  0.67884721    -0.77520
O350        O  0.81250142  0.19281510  0.69068915    -1.13660
O351        O  0.79932906  0.17510256  0.63219375    -0.72850
C352        C  0.81043557  0.19866044  0.61865962     0.97860
C353        C  0.83322624  0.23543871  0.74414017     0.94260
Al354      Al  0.82641489  0.17295402  0.72428097     1.55560
O355        O  0.79530228  0.25134091  0.68183887    -0.77470
C356        C  0.80756547  0.12053594  0.69131608     0.98430
C357        C  0.88466858  0.19492638  0.69582902     0.93310
O358        O  0.87088188  0.20683396  0.67273886    -0.82790
O359        O  0.63532413  0.33335094  0.70976806    -0.82250
C360        C  0.74446344  0.26892436  0.67182646     0.97100
O361        O  0.71692516  0.26144074  0.66506750    -0.71370
O362        O  0.68123815  0.25593549  0.71396899    -0.74960
Al363      Al  0.67768718  0.27893662  0.67660792     1.48980
C364        C  0.67155953  0.26362985  0.74053092     0.92350
O365        O  0.71312653  0.32580495  0.75046150    -0.81180
O366        O  0.70664708  0.37122038  0.67278867    -0.74740
Al367      Al  0.67562571  0.32939981  0.72805855     1.90120
O368        O  0.74545731  0.34359597  0.71539915    -0.73810
O369        O  0.71639911  0.32262614  0.63515304    -0.73660
O370        O  0.75106117  0.29597884  0.68048537    -0.79320
O371        O  0.67242342  0.29707571  0.63665765    -0.77520
O372        O  0.69302733  0.31358445  0.69369988    -1.13660
O373        O  0.63546801  0.28834669  0.68556741    -0.72850
C374        C  0.62084998  0.31020812  0.69864328     0.97860
C375        C  0.73997117  0.33420310  0.74247704     0.94260
Al376      Al  0.72659715  0.33196252  0.67716791     1.55560
O377        O  0.66443628  0.29122555  0.74667310    -0.77470
C378        C  0.69455233  0.30870628  0.62134875     0.98430
C379        C  0.69614622  0.38591950  0.69595618     0.93310
O380        O  0.68402245  0.37149841  0.71833491    -0.82790
C381        C  0.75037477  0.51703286  0.75813913     0.00110
C382        C  0.75147098  0.48568454  0.75602035     0.00110
O383        O  0.78488151  0.68305492  0.86845151    -0.82250
C384        C  0.83277059  0.74043407  0.76476302     0.97100
O385        O  0.82209134  0.74856951  0.79084415    -0.71370
O386        O  0.78566662  0.74331156  0.83911571    -0.74960
Al387      Al  0.82524253  0.72642014  0.82889482     1.48980
C388        C  0.75850411  0.73601505  0.83104967     0.92350
O389        O  0.76107004  0.66053206  0.78659689    -0.81180
O390        O  0.82220838  0.63330790  0.78818156    -0.74740
Al391      Al  0.77705784  0.67309503  0.82606234     1.90120
O392        O  0.79505169  0.67869555  0.75338911    -0.73810
O393        O  0.86991071  0.67194306  0.79957808    -0.73660
O394        O  0.84278608  0.71344416  0.76018785    -0.79320
O395        O  0.86794258  0.71788575  0.82164421    -0.77520
O396        O  0.81131312  0.69144300  0.81145880    -1.13660
O397        O  0.82901903  0.70853959  0.86932897    -0.72850
C398        C  0.80600940  0.69692083  0.88346949     0.97860
C399        C  0.76796634  0.66980486  0.75970995     0.94260
Al400      Al  0.83095090  0.67539138  0.77845345     1.55560
O401        O  0.75241323  0.70918929  0.82108309    -0.77470
C402        C  0.88356225  0.69578722  0.81022522     0.98430
C403        C  0.80908392  0.61909266  0.81016113     0.93310
O404        O  0.79708035  0.63414499  0.83232215    -0.82790
O405        O  0.82258723  0.86909110  0.71431914    -0.82250
C406        C  0.75973667  0.76562844  0.67079538     0.97100
O407        O  0.75354597  0.79251658  0.68050976    -0.71370
O408        O  0.76149554  0.84131092  0.71506043    -0.74960
Al409      Al  0.77816866  0.82860906  0.67585501     1.48980
C410        C  0.76829974  0.83264761  0.74222680     0.92350
O411        O  0.84306838  0.78911582  0.74341032    -0.81180
O412        O  0.86887005  0.78399257  0.68266047    -0.74740
Al413      Al  0.83141331  0.82703386  0.72448270     1.90120
O414        O  0.82244402  0.75379414  0.71287095    -0.73810
O415        O  0.83100056  0.79267320  0.63419913    -0.73660
O416        O  0.78706917  0.75815502  0.66364089    -0.79320
O417        O  0.78685407  0.81819099  0.63353849    -0.77520
O418        O  0.81219990  0.81053885  0.69132742    -1.13660
O419        O  0.79803321  0.86766790  0.66977838    -0.72850
C420        C  0.80949893  0.88298454  0.69209542     0.97860
C421        C  0.83288261  0.76213753  0.73900269     0.94260
Al422      Al  0.82639189  0.77532782  0.67464859     1.55560
O423        O  0.79533659  0.82394633  0.74898292    -0.77470
C424        C  0.80822012  0.80383027  0.61930939     0.98430
C425        C  0.88437625  0.80632474  0.69379086     0.93310
O426        O  0.87063467  0.83033969  0.70389509    -0.82790
O427        O  0.63269964  0.79997081  0.82974202    -0.82250
C428        C  0.74399628  0.83145215  0.76577428     0.97100
O429        O  0.71686719  0.83963678  0.75852779    -0.71370
O430        O  0.68058528  0.79125317  0.75306928    -0.74960
Al431      Al  0.67729339  0.82920196  0.77538140     1.48980
C432        C  0.66993255  0.76516249  0.76104423     0.92350
O433        O  0.70731977  0.75351626  0.82292535    -0.81180
O434        O  0.70563306  0.83262972  0.86746855    -0.74740
Al435      Al  0.67157002  0.77874682  0.82624568     1.90120
O436        O  0.74141915  0.78679055  0.84104732    -0.73810
O437        O  0.71784465  0.86866770  0.81874017    -0.73660
O438        O  0.75001638  0.82119190  0.79246272    -0.79320
O439        O  0.67348533  0.86959557  0.79358304    -0.77520
O440        O  0.69125619  0.81171022  0.81027106    -1.13660
O441        O  0.63456234  0.82168503  0.78373802    -0.72850
C442        C  0.61899885  0.81028601  0.80580715     0.97860
C443        C  0.73435655  0.75978554  0.83205961     0.94260
Al444      Al  0.72554936  0.82626835  0.82858247     1.55560
O445        O  0.65973602  0.76056412  0.78796000    -0.77470
C446        C  0.69669011  0.88371376  0.80501081     0.98430
C447        C  0.69407782  0.81038696  0.88262418     0.93310
O448        O  0.68053911  0.78842058  0.86858415    -0.82790
O449        O  0.67219823  0.63476697  0.70873901    -0.82250
C450        C  0.73533978  0.74213246  0.66912147     0.97100
O451        O  0.74203713  0.71495242  0.66025380    -0.71370
O452        O  0.74993299  0.68104739  0.70926637    -0.74960
Al453      Al  0.72534210  0.67580350  0.67321337     1.48980
C454        C  0.74365195  0.67145088  0.73610318     0.92350
O455        O  0.68074383  0.71341568  0.74765771    -0.81180
O456        O  0.63291672  0.70390577  0.67077344    -0.74740
Al457      Al  0.67686349  0.67515739  0.72614684     1.90120
O458        O  0.66028972  0.74368794  0.71213677    -0.73810
O459        O  0.68137584  0.71392966  0.63223022    -0.73660
O460        O  0.70827826  0.74896039  0.67765930    -0.79320
O461        O  0.70538383  0.66916220  0.63428622    -0.77520
O462        O  0.69125199  0.69150536  0.69102874    -1.13660
O463        O  0.71678414  0.63342926  0.68406367    -0.72850
C464        C  0.69517328  0.61961363  0.69840170     0.97860
C465        C  0.67018482  0.73940743  0.73925177     0.94260
Al466      Al  0.67218182  0.72448850  0.67428923     1.55560
O467        O  0.71625715  0.66430094  0.74345573    -0.77470
C468        C  0.69453798  0.69146481  0.61864946     0.98430
C469        C  0.61897824  0.69410682  0.69475725     0.93310
O470        O  0.63430305  0.68316138  0.71727834    -0.82790
C471        C  0.51697531  0.75041028  0.75172241     0.00110
C472        C  0.48552678  0.75035315  0.75181792     0.00110
O473        O  0.17298604  0.70562569  0.86783290    -0.82250
C474        C  0.23439523  0.66925991  0.75807207     0.97100
O475        O  0.24120547  0.65932917  0.78477941    -0.71370
O476        O  0.25004134  0.70688556  0.82070626    -0.74960
Al477      Al  0.22506839  0.67086192  0.82447864     1.48980
C478        C  0.24400217  0.73354451  0.83110621     0.92350
O479        O  0.18056980  0.74734974  0.79041189    -0.81180
O480        O  0.13244568  0.67051932  0.79744151    -0.74740
Al481      Al  0.17716717  0.72438034  0.82795512     1.90120
O482        O  0.15946538  0.71301393  0.75911097    -0.73810
O483        O  0.18024793  0.63211468  0.78492727    -0.73660
O484        O  0.20736820  0.67843429  0.75177670    -0.79320
O485        O  0.20478749  0.63184710  0.82944598    -0.77520
O486        O  0.19101813  0.68972725  0.80994596    -1.13660
O487        O  0.21696287  0.67986965  0.86718410    -0.72850
C488        C  0.19574576  0.69368336  0.88212232     0.97860
C489        C  0.16957088  0.73988308  0.76423640     0.94260
Al490      Al  0.17140671  0.67449445  0.77647472     1.55560
O491        O  0.21677154  0.74085921  0.83887370    -0.77470
C492        C  0.19340686  0.61736401  0.80654366     0.98430
C493        C  0.11886287  0.69416330  0.80863941     0.93310
O494        O  0.13451973  0.71613462  0.82024745    -0.82790
O495        O  0.13218689  0.83181661  0.70543912    -0.82250
C496        C  0.24244609  0.76701747  0.67153572     0.97100
O497        O  0.21512163  0.75998322  0.66370981    -0.71370
O498        O  0.17954115  0.75448690  0.71264631    -0.74960
Al499      Al  0.17573530  0.77710624  0.67504772     1.48980
C500        C  0.16923333  0.76221203  0.73899512     0.92350
O501        O  0.20694003  0.82330496  0.75092760    -0.81180
O502        O  0.20460849  0.86884413  0.67252453    -0.74740
Al503      Al  0.17109417  0.82750505  0.72626877     1.90120
O504        O  0.24085349  0.84163093  0.71770708    -0.73810
O505        O  0.21591978  0.82049710  0.63563577    -0.73660
O506        O  0.24868860  0.79351249  0.68225519    -0.79320
O507        O  0.17134368  0.79576310  0.63504323    -0.77520
O508        O  0.19020139  0.81166758  0.69283298    -1.13660
O509        O  0.13313374  0.78583932  0.68331000    -0.72850
C510        C  0.11805136  0.80812570  0.69513095     0.97860
C511        C  0.23399002  0.83211965  0.74455603     0.94260
Al512      Al  0.22438117  0.82981389  0.67810524     1.55560
O513        O  0.15902997  0.78909515  0.74405771    -0.77470
C514        C  0.19432462  0.80721758  0.62071658     0.98430
C515        C  0.19351640  0.88397245  0.69508518     0.93310
O516        O  0.18046172  0.86989946  0.71722421    -0.82790
O517        O  0.32210198  0.78537544  0.87016167    -0.82250
C518        C  0.25821741  0.83020670  0.76812847     0.97100
O519        O  0.25225556  0.81909634  0.79448471    -0.71370
O520        O  0.26118031  0.78394410  0.84254624    -0.74960
Al521      Al  0.27673386  0.82367711  0.83075589     1.48980
C522        C  0.26824988  0.75719898  0.83289987     0.92350
O523        O  0.34267024  0.75923696  0.78879624    -0.81180
O524        O  0.36751645  0.82089574  0.78595806    -0.74740
Al525      Al  0.33104086  0.77655426  0.82749513     1.90120
O526        O  0.32183858  0.79079422  0.75460092    -0.73810
O527        O  0.32829742  0.86839396  0.79690501    -0.73660
O528        O  0.28526916  0.83876573  0.76118309    -0.79320
O529        O  0.28392429  0.86623655  0.82174206    -0.77520
O530        O  0.31112470  0.80979663  0.81222630    -1.13660
O531        O  0.29678774  0.82948175  0.86963329    -0.72850
C532        C  0.30818046  0.80694021  0.88448570     0.97860
C533        C  0.33244938  0.76449477  0.76198438     0.94260
Al534      Al  0.32485681  0.82826374  0.77778926     1.55560
O535        O  0.29531429  0.75120524  0.82371448    -0.77470
C536        C  0.30481582  0.88192958  0.80848064     0.98430
C537        C  0.38343669  0.80887494  0.80744070     0.93310
O538        O  0.37008620  0.79772496  0.83120125    -0.82790
O539        O  0.28578324  0.63472435  0.68160305    -0.82250
C540        C  0.33211630  0.73924713  0.73958796     0.97100
O541        O  0.32153228  0.71306730  0.74735943    -0.71370
O542        O  0.28609475  0.66395516  0.74189486    -0.74960
Al543      Al  0.32544695  0.67529136  0.72496981     1.48980
C544        C  0.25872534  0.67133259  0.73462946     0.92350
O545        O  0.26014407  0.71656927  0.65990643    -0.81180
O546        O  0.32087060  0.71627080  0.63193776    -0.74740
Al547      Al  0.27698642  0.67718850  0.67194009     1.90120
O548        O  0.29391919  0.75017233  0.67811799    -0.73810
O549        O  0.36947545  0.70538165  0.67044159    -0.73660
O550        O  0.34197046  0.74416087  0.71259179    -0.79320
O551        O  0.36789745  0.68350467  0.71640836    -0.77520
O552        O  0.31106143  0.69247048  0.69019652    -1.13660
O553        O  0.33023686  0.63529908  0.70665006    -0.72850
C554        C  0.30753347  0.62044397  0.69529284     0.97860
C555        C  0.26683388  0.74353341  0.66939441     0.94260
Al556      Al  0.33010073  0.72583964  0.67427773     1.55560
O557        O  0.25245401  0.68152484  0.70801230    -0.77470
C558        C  0.38332633  0.69489012  0.69423666     0.98430
C559        C  0.30764470  0.69411964  0.61788773     0.93310
O560        O  0.29689319  0.67145970  0.63299902    -0.82790
C561        C  0.98559620  0.75073037  0.75235455     0.00110
C562        C  0.01698221  0.75046908  0.75222682     0.00110
C563        C  0.24578903  0.74780327  0.48586850     0.00110
C564        C  0.24604884  0.74780392  0.51729470     0.00110
C565        C  0.98412486  0.75406975  0.24430595     0.00110
C566        C  0.01554764  0.75432556  0.24432675     0.00110
O567        O  0.32853266  0.86725349  0.20868729    -0.82250
C568        C  0.26303072  0.76100428  0.16939377     0.97100
O569        O  0.25714909  0.78819126  0.16062176    -0.71370
O570        O  0.25068508  0.82274592  0.20842493    -0.74960
Al571      Al  0.27537606  0.82647560  0.17249992     1.48980
C572        C  0.25705199  0.83086018  0.23573369     0.92350
O573        O  0.32039141  0.78931035  0.24874554    -0.81180
O574        O  0.36746076  0.79529644  0.17221025    -0.74740
Al575      Al  0.32370353  0.82706796  0.22626428     1.90120
O576        O  0.33815169  0.75741784  0.21321248    -0.73810
O577        O  0.31934833  0.78629777  0.13331691    -0.73660
O578        O  0.28996406  0.75320805  0.17784596    -0.79320
O579        O  0.29526390  0.83107539  0.13302880    -0.77520
O580        O  0.30904369  0.81022266  0.19114053    -1.13660
O581        O  0.28508012  0.86855079  0.18213256    -0.72850
C582        C  0.30641259  0.88241922  0.19679124     0.97860
C583        C  0.33038210  0.76295401  0.24072252     0.94260
Al584      Al  0.32725430  0.77631428  0.17523425     1.55560
O585        O  0.28438888  0.83786426  0.24348223    -0.77470
C586        C  0.30676028  0.80816962  0.11856750     0.98430
C587        C  0.38133393  0.80663466  0.19565371     0.93310
O588        O  0.36600622  0.81900829  0.21738165    -0.82790
O589        O  0.21451869  0.82023838  0.36861257    -0.82250
C590        C  0.16879658  0.75738982  0.26719265     0.97100
O591        O  0.17948764  0.75131131  0.29373316    -0.71370
O592        O  0.21452891  0.75968563  0.34206586    -0.74960
Al593      Al  0.17486414  0.77564291  0.33004121     1.48980
C594        C  0.24139599  0.76632414  0.33252474     0.92350
O595        O  0.23914578  0.84057898  0.28626808    -0.81180
O596        O  0.17848246  0.86668826  0.28524555    -0.74740
Al597      Al  0.22275248  0.82898554  0.32581718     1.90120
O598        O  0.20637397  0.81997217  0.25299321    -0.73810
O599        O  0.13106149  0.82836717  0.29759620    -0.73660
O600        O  0.15868783  0.78411547  0.26080393    -0.79320
O601        O  0.13199964  0.78316804  0.32087100    -0.77520
O602        O  0.18902431  0.80970983  0.31124383    -1.13660
O603        O  0.16967502  0.79606878  0.36897961    -0.72850
C604        C  0.19273262  0.80724957  0.38343749     0.97860
C605        C  0.23279886  0.83081285  0.25934750     0.94260
Al606      Al  0.17003517  0.82384735  0.27723741     1.55560
O607        O  0.24744343  0.79286547  0.32191626    -0.77470
C608        C  0.11689888  0.80495179  0.30822682     0.98430
C609        C  0.19104945  0.88195935  0.30703379     0.93310
O610        O  0.20212566  0.86793847  0.33035160    -0.82790
O611        O  0.29332726  0.67077318  0.36838172    -0.82250
C612        C  0.33192178  0.73781568  0.26313629     0.97100
O613        O  0.34060023  0.74356269  0.29043587    -0.71370
O614        O  0.29256063  0.74905228  0.32464713    -0.74960
Al615      Al  0.32881644  0.72482278  0.32842790     1.48980
C616        C  0.26532171  0.74230111  0.33253312     0.92350
O617        O  0.25343191  0.67914885  0.29023742    -0.81180
O618        O  0.33069896  0.63315132  0.29608209    -0.74740
Al619      Al  0.27581936  0.67574652  0.32808711     1.90120
O620        O  0.28933747  0.66219383  0.25837017    -0.73810
O621        O  0.36887670  0.68185405  0.28803226    -0.73660
O622        O  0.32390817  0.71085538  0.25498359    -0.79320
O623        O  0.36852929  0.70540112  0.33315376    -0.77520
O624        O  0.31077014  0.69105956  0.31165891    -1.13660
O625        O  0.31910226  0.71462611  0.37029080    -0.72850
C626        C  0.30472463  0.69299796  0.38385813     0.97860
C627        C  0.26169456  0.66952043  0.26382673     0.94260
Al628      Al  0.32708500  0.67343852  0.27763632     1.55560
O629        O  0.25795064  0.71480686  0.33924714    -0.77470
C630        C  0.38330798  0.69450381  0.31018315     0.98430
C631        C  0.30734211  0.61877680  0.30677315     0.93310
O632        O  0.28537192  0.63355896  0.31942862    -0.82790
O633        O  0.13358759  0.70546783  0.17115596    -0.82250
C634        C  0.23939296  0.66789229  0.23854121     0.97100
O635        O  0.21222575  0.65872666  0.24397394    -0.71370
O636        O  0.17754398  0.70649696  0.24957941    -0.74960
Al637      Al  0.17413602  0.67032044  0.22514944     1.48980
C638        C  0.16925438  0.73364430  0.24295302     0.92350
O639        O  0.21139867  0.74626079  0.17992778    -0.81180
O640        O  0.20672557  0.66893933  0.13389032    -0.74740
Al641      Al  0.17380447  0.72340658  0.17629856     1.90120
O642        O  0.24387902  0.71080360  0.16319395    -0.73810
O643        O  0.21509664  0.63098690  0.18235249    -0.73660
O644        O  0.24750346  0.67628476  0.21175014    -0.79320
O645        O  0.16977309  0.63070588  0.20536138    -0.77520
O646        O  0.19071459  0.68867525  0.19159381    -1.13660
O647        O  0.13223550  0.67966580  0.21491303    -0.72850
C648        C  0.11833127  0.69370145  0.19328036     0.97860
C649        C  0.23801478  0.73835453  0.17058935     0.94260
Al650      Al  0.22502992  0.67283684  0.17419889     1.55560
O651        O  0.16246290  0.74105317  0.21545789    -0.77470
C652        C  0.19287628  0.61624576  0.19432474     0.98430
C653        C  0.19571917  0.69204851  0.11939780     0.93310
O654        O  0.18264008  0.71391252  0.13403005    -0.82790
C655        C  0.24933641  0.75127370  0.98581438     0.00110
C656        C  0.25014992  0.75061982  0.01722753     0.00110
C657        C  0.24872416  0.51581825  0.25222679     0.00110
C658        C  0.24805588  0.48447726  0.25425056     0.00110
C659        C  0.25459613  0.25268645  0.98560297     0.00110
C660        C  0.25467474  0.25323568  0.01701861     0.00110
C661        C  0.24921790  0.98449377  0.25301674     0.00110
C662        C  0.24677588  0.01569301  0.25026073     0.00110
O663        O  0.32914701  0.29619346  0.36685158    -0.82250
C664        C  0.26723955  0.33188953  0.25720359     0.97100
O665        O  0.26061056  0.34198157  0.28391734    -0.71370
O666        O  0.25187051  0.29419594  0.31938042    -0.74960
Al667      Al  0.27674037  0.33031979  0.32350569     1.48980
C668        C  0.25792562  0.26767680  0.33004396     0.92350
O669        O  0.32098589  0.25387557  0.28966190    -0.81180
O670        O  0.36926944  0.33060642  0.29648363    -0.74740
Al671      Al  0.32470657  0.27701529  0.32708731     1.90120
O672        O  0.34190056  0.28797909  0.25815645    -0.73810
O673        O  0.32159823  0.36904894  0.28436769    -0.73660
O674        O  0.29422276  0.32270364  0.25082516    -0.79320
O675        O  0.29709072  0.36923140  0.32886371    -0.77520
O676        O  0.31077271  0.31150967  0.30900460    -1.13660
O677        O  0.28484201  0.32136701  0.36606233    -0.72850
C678        C  0.30633970  0.30816123  0.38106947     0.97860
C679        C  0.33163784  0.26120878  0.26338256     0.94260
Al680      Al  0.33025112  0.32663092  0.27557030     1.55560
O681        O  0.28512324  0.26059901  0.33819352    -0.77470
C682        C  0.30874560  0.38377201  0.30625686     0.98430
C683        C  0.38291055  0.30703859  0.30764249     0.93310
O684        O  0.36732845  0.28509154  0.31921886    -0.82790
O685        O  0.21643504  0.13456896  0.32200065    -0.82250
C686        C  0.16880862  0.23642948  0.26179939     0.97100
O687        O  0.17928004  0.21004826  0.25449161    -0.71370
O688        O  0.21515671  0.16169844  0.26096688    -0.74960
Al689      Al  0.17585442  0.17295110  0.27789609     1.48980
C690        C  0.24230916  0.17024443  0.26766602     0.92350
O691        O  0.24072555  0.21728249  0.34161495    -0.81180
O692        O  0.18018226  0.21700015  0.36968811    -0.74740
Al693      Al  0.22454059  0.17739592  0.33057473     1.90120
O694        O  0.20658630  0.25005113  0.32276333    -0.73810
O695        O  0.13176472  0.20406741  0.33185022    -0.73660
O696        O  0.15850887  0.24187119  0.28854655    -0.79320
O697        O  0.13339304  0.18080552  0.28648674    -0.77520
O698        O  0.19016850  0.19150743  0.31214396    -1.13660
O699        O  0.17178909  0.13345985  0.29734732    -0.72850
C700        C  0.19487368  0.11940304  0.30893238     0.97860
C701        C  0.23368888  0.24400267  0.33187583     0.94260
Al702      Al  0.17073452  0.22508626  0.32725011     1.55560
O703        O  0.24863908  0.18113215  0.29408147    -0.77470
C704        C  0.11792001  0.19255587  0.30848868     0.98430
C705        C  0.19372756  0.19559443  0.38442514     0.93310
O706        O  0.20501051  0.17263732  0.36996056    -0.82790
O707        O  0.21485389  0.36647273  0.18186659    -0.82250
C708        C  0.16932943  0.26150505  0.23940714     0.97100
O709        O  0.18021814  0.28760702  0.24717824    -0.71370
O710        O  0.21539754  0.33682638  0.24157346    -0.74960
Al711      Al  0.17587328  0.32537189  0.22513356     1.48980
C712        C  0.24269045  0.32961431  0.23395460     0.92350
O713        O  0.24022810  0.28440566  0.15895664    -0.81180
O714        O  0.17888617  0.28475314  0.13170156    -0.74740
Al715      Al  0.22347269  0.32381550  0.17150719     1.90120
O716        O  0.20662686  0.25076510  0.17716385    -0.73810
O717        O  0.13063763  0.29527507  0.17119809    -0.73660
O718        O  0.15923850  0.25654676  0.21245262    -0.79320
O719        O  0.13344526  0.31707222  0.21723299    -0.77520
O720        O  0.18967279  0.30835568  0.19004647    -1.13660
O721        O  0.17060755  0.36523687  0.20712240    -0.72850
C722        C  0.19332240  0.38037467  0.19635712     0.97860
C723        C  0.23364327  0.25741826  0.16834099     0.94260
Al724      Al  0.17033770  0.27501015  0.17411020     1.55560
O725        O  0.24863134  0.31941446  0.20722360    -0.77470
C726        C  0.11741103  0.30563848  0.19545271     0.98430
C727        C  0.19225211  0.30676279  0.11767250     0.93310
O728        O  0.20290709  0.32954165  0.13284656    -0.82790
O729        O  0.36821734  0.16894614  0.20488588    -0.82250
C730        C  0.25804420  0.23388128  0.17042423     0.97100
O731        O  0.28541953  0.24080683  0.16278323    -0.71370
O732        O  0.32099353  0.24639012  0.21191836    -0.74960
Al733      Al  0.32475152  0.22354769  0.17438467     1.48980
C734        C  0.33145887  0.23875166  0.23821372     0.92350
O735        O  0.29337234  0.17756878  0.25016367    -0.81180
O736        O  0.29530751  0.13161445  0.17203224    -0.74740
Al737      Al  0.32922987  0.17336852  0.22556487     1.90120
O738        O  0.25916980  0.15961805  0.21681628    -0.73810
O739        O  0.28457661  0.17995670  0.13467261    -0.73660
O740        O  0.25172755  0.20743517  0.18106275    -0.79320
O741        O  0.32923138  0.20460617  0.13454223    -0.77520
O742        O  0.31013060  0.18908788  0.19209991    -1.13660
O743        O  0.36736038  0.21483743  0.18285705    -0.72850
C744        C  0.38241327  0.19261288  0.19473982     0.97860
C745        C  0.26628290  0.16871976  0.24381357     0.93140
Al746      Al  0.27586888  0.17097054  0.17722476     1.55560
O747        O  0.34135160  0.21180053  0.24334685    -0.77470
C748        C  0.30628648  0.19321239  0.12000489     0.98430
C749        C  0.30621372  0.11673634  0.19481439     0.93310
O750        O  0.31977845  0.13102120  0.21659889    -0.82790
C751        C  0.01572251  0.24904933  0.25370112     0.00110
C752        C  0.98444926  0.25150896  0.25536971     0.00110
C753        C  0.07180299  0.31165994  0.23023809    -0.21760
C754        C  0.08412884  0.29932581  0.20245127    -0.09800
C755        C  0.06828086  0.27446921  0.18808882     0.29050
C756        C  0.04366650  0.25968535  0.20357979    -0.21760
C757        C  0.03451073  0.26961396  0.23331626    -0.09820
C758        C  0.04766487  0.29666045  0.24580327     0.29060
F759        F  0.03928350  0.30677951  0.27450360    -0.20340
H760        H  0.08313695  0.33098361  0.24183040     0.17430
H761        H  0.03339364  0.23902131  0.19344836     0.17430
F762        F  0.07865161  0.26225549  0.16091572    -0.20330
C763        C  0.07109113  0.18551275  0.27546341    -0.21760
C764        C  0.08425379  0.19792315  0.30283652    -0.09800
C765        C  0.06845197  0.22226810  0.31805620     0.29050
C766        C  0.04327290  0.23694158  0.30343573    -0.21760
C767        C  0.03356281  0.22741354  0.27374898    -0.09820
C768        C  0.04635297  0.20043926  0.26073142     0.29060
F769        F  0.03713746  0.19046239  0.23222297    -0.20340
H770        H  0.08228932  0.16641305  0.26337268     0.17430
H771        H  0.03329007  0.25756844  0.31395525     0.17430
F772        F  0.07954719  0.23438885  0.34501206    -0.20330
C773        C  0.18538978  0.07253773  0.27599317    -0.21760
C774        C  0.20026535  0.08600427  0.30190187    -0.09800
C775        C  0.22621414  0.07058499  0.31475030     0.29050
C776        C  0.23933858  0.04508287  0.29942577    -0.21760
C777        C  0.22679440  0.03440761  0.27130559    -0.09820
C778        C  0.19867635  0.04704541  0.26064325     0.29060
F779        F  0.18565707  0.03662197  0.23384389    -0.20340
H780        H  0.16538966  0.08370917  0.26554807     0.17430
H781        H  0.26094606  0.03542367  0.30804310     0.17430
F782        F  0.24096478  0.08212002  0.34019543    -0.20330
C783        C  0.25457062  0.04727034  0.20235949    -0.21760
C784        C  0.26719950  0.03378903  0.22917235    -0.09800
C785        C  0.29698733  0.04273949  0.23899901     0.29050
C786        C  0.31221377  0.06741091  0.22436233    -0.21760
C787        C  0.29781364  0.08368612  0.19990310    -0.09820
C788        C  0.26977327  0.07190201  0.18760267     0.29060
F789        F  0.25493692  0.08659519  0.16397648    -0.20340
H790        H  0.23173716  0.04041868  0.19432694     0.17430
H791        H  0.33378521  0.07581502  0.23427282     0.17430
F792        F  0.30984909  0.02987905  0.26475060    -0.20330
C793        C  0.26224972  0.20357301  0.04553449    -0.21760
C794        C  0.27450522  0.23202746  0.03566466    -0.09800
C795        C  0.30240423  0.24275287  0.04879117     0.29050
C796        C  0.31573613  0.22706864  0.07400267    -0.21760
C797        C  0.30113226  0.20072386  0.08669132    -0.09820
C798        C  0.27546164  0.18787401  0.07072525     0.29060
F799        F  0.26105767  0.16196808  0.08144601    -0.20340
H800        H  0.24088375  0.19485052  0.03542481     0.17430
H801        H  0.33549169  0.23754580  0.08561489     0.17430
F802        F  0.31507830  0.26994687  0.03918660    -0.20330
C803        C  0.18790482  0.27666083  0.06835745    -0.21760
C804        C  0.20107010  0.30185733  0.08464540    -0.09800
C805        C  0.22862372  0.31525776  0.07297939     0.29050
C806        C  0.24461498  0.30098234  0.04846586    -0.21760
C807        C  0.23329606  0.27352043  0.03503781    -0.09820
C808        C  0.20397056  0.26243026  0.04392695     0.29060
F809        F  0.19239656  0.23594833  0.03124576    -0.20340
H810        H  0.16673827  0.26586859  0.07664154     0.17430
H811        H  0.26713952  0.30991472  0.04171500     0.17430
F812        F  0.24229598  0.33964540  0.08765947    -0.20330
C813        C  0.20279646  0.44857387  0.25013383    -0.21760
C814        C  0.22668678  0.46489243  0.23525032    -0.09800
C815        C  0.23422241  0.45715771  0.20441485     0.29050
C816        C  0.22023160  0.43147191  0.18997636    -0.21760
C817        C  0.19845539  0.41315136  0.20600955    -0.09820
C818        C  0.18864381  0.42303611  0.23572695     0.29060
F819        F  0.16838156  0.40579807  0.25261626    -0.20340
H820        H  0.19683533  0.45406178  0.27395114     0.17430
H821        H  0.22841768  0.42432149  0.16727949     0.17430
F822        F  0.25732818  0.47239972  0.18940424    -0.20330
C823        C  0.26111657  0.45619113  0.30310326    -0.21760
C824        C  0.27042446  0.46725879  0.27396096    -0.09800
C825        C  0.29816227  0.45632827  0.26086321     0.29050
C826        C  0.31406391  0.43172930  0.27475810    -0.21760
C827        C  0.30209311  0.41725301  0.30151527    -0.09820
C828        C  0.27696981  0.43146371  0.31705491     0.29060
F829        F  0.26520989  0.41909262  0.34352636    -0.20340
H830        H  0.23991408  0.46475757  0.31365095     0.17430
H831        H  0.33365817  0.42171451  0.26248453     0.17430
F832        F  0.30789608  0.46703256  0.23287434    -0.20330
C833        C  0.23848080  0.54335332  0.20262753    -0.21760
C834        C  0.22744479  0.53317056  0.23141377    -0.09800
C835        C  0.19917402  0.54494372  0.24271997     0.29050
C836        C  0.18445206  0.56960581  0.22739615    -0.21760
C837        C  0.19793456  0.58278541  0.20074747    -0.09820
C838        C  0.22363904  0.56761291  0.18707105     0.29060
F839        F  0.23688334  0.57877840  0.16073473    -0.20340
H840        H  0.26017114  0.53439549  0.19351332     0.17430
H841        H  0.16470105  0.58063976  0.23845407     0.17430
F842        F  0.18759236  0.53481890  0.27019836    -0.20330
C843        C  0.24545070  0.70232510  0.04889307    -0.21760
C844        C  0.23117478  0.72845009  0.03565425    -0.09800
C845        C  0.20113322  0.73667430  0.04524019     0.29050
C846        C  0.18720784  0.72121509  0.07018784    -0.21760
C847        C  0.20311082  0.69745702  0.08612081    -0.09820
C848        C  0.23148866  0.68668258  0.07376680     0.29060
F849        F  0.24774027  0.66382124  0.08815137    -0.20340
H850        H  0.26863154  0.69564601  0.04167214     0.17430
H851        H  0.16533013  0.72999914  0.07905975     0.17430
F852        F  0.18663790  0.76165944  0.03264122    -0.20330
C853        C  0.27730996  0.57004627  0.31495259    -0.21760
C854        C  0.30171044  0.58544877  0.29950888    -0.09800
C855        C  0.31292084  0.57257080  0.27152393     0.29050
C856        C  0.29717578  0.54770859  0.25739847    -0.21760
C857        C  0.27049268  0.53502048  0.27115714    -0.09820
C858        C  0.26171193  0.54518691  0.30086221     0.29060
F859        F  0.23616201  0.53317572  0.31485866    -0.20340
H860        H  0.26817497  0.57929069  0.33652931     0.17430
H861        H  0.30437268  0.53995402  0.23455426     0.17430
F862        F  0.33650835  0.58634244  0.25582183    -0.20330
C863        C  0.18512418  0.92970966  0.27503997    -0.21760
C864        C  0.19803758  0.91532259  0.30144190    -0.09800
C865        C  0.22378302  0.92957866  0.31598678     0.29050
C866        C  0.23873275  0.95474468  0.30175583    -0.21760
C867        C  0.22804750  0.96623066  0.27320656    -0.09820
C868        C  0.20011881  0.95475509  0.26087467     0.29060
F869        F  0.18920857  0.96549328  0.23331122    -0.20340
H870        H  0.16524023  0.91952824  0.26338870     0.17430
H871        H  0.26016286  0.96351639  0.31164684     0.17430
F872        F  0.23686052  0.91700354  0.34176623    -0.20330
C873        C  0.27854395  0.93255238  0.18897802    -0.21760
C874        C  0.30150156  0.91556732  0.20496481    -0.09800
C875        C  0.31200495  0.92686947  0.23392752     0.29050
C876        C  0.29673090  0.95175096  0.24827486    -0.21760
C877        C  0.27123767  0.96601606  0.23386880    -0.09820
C878        C  0.26345268  0.95756980  0.20332262     0.29060
F879        F  0.23911693  0.97127898  0.18868094    -0.20340
H880        H  0.27004931  0.92450873  0.16667592     0.17430
H881        H  0.30316094  0.95819546  0.27173916     0.17430
F882        F  0.33409838  0.91144788  0.25032710    -0.20330
C883        C  0.27276684  0.81514185  0.07222590    -0.21760
C884        C  0.30012288  0.80274778  0.08512961    -0.09800
C885        C  0.31461275  0.77758432  0.06975169     0.29050
C886        C  0.29944502  0.76225749  0.04539706    -0.21760
C887        C  0.27012532  0.77220279  0.03542999    -0.09820
C888        C  0.25778645  0.79991217  0.04756821     0.29060
F889        F  0.22981400  0.81053801  0.03762447    -0.20340
H890        H  0.26103802  0.83441709  0.08343013     0.17430
H891        H  0.30941656  0.74109168  0.03607132     0.17430
F892        F  0.34160942  0.76541078  0.08067326    -0.20330
C893        C  0.04338589  0.70432030  0.23605612    -0.21760
C894        C  0.03404877  0.73314620  0.22422074    -0.09800
C895        C  0.04755719  0.74402521  0.19664420     0.29050
C896        C  0.07277366  0.72818727  0.18341418    -0.21760
C897        C  0.08495844  0.70144043  0.19773149    -0.09820
C898        C  0.06843713  0.68837095  0.22283667     0.29060
F899        F  0.07856807  0.66200178  0.23684224    -0.20340
H900        H  0.03300106  0.69547481  0.25716226     0.17430
H901        H  0.08476384  0.73878260  0.16404425     0.17430
F902        F  0.03827644  0.77141086  0.18416573    -0.20330
C903        C  0.04356302  0.75988863  0.29471030    -0.21760
C904        C  0.03368302  0.77332061  0.26676839    -0.09800
C905        C  0.04632615  0.80191032  0.25761470     0.29050
C906        C  0.07104662  0.81498362  0.27430599    -0.21760
C907        C  0.08379509  0.79941926  0.30007355    -0.09820
C908        C  0.06830600  0.77285816  0.31142094     0.29060
F909        F  0.07909851  0.75751591  0.33676571    -0.20340
H910        H  0.03384845  0.73793829  0.30217730     0.17430
H911        H  0.08230012  0.83542526  0.26497708     0.17430
F912        F  0.03682187  0.81563858  0.23090222    -0.20330
C913        C  0.31099266  0.72160514  0.43380775    -0.21760
C914        C  0.29627768  0.69765133  0.41699029    -0.09800
C915        C  0.26799437  0.68567313  0.42841702     0.29050
C916        C  0.25294178  0.70032337  0.45329974    -0.21760
C917        C  0.26594628  0.72671692  0.46735200    -0.09820
C918        C  0.29588558  0.73621148  0.45861378     0.29060
F919        F  0.30913604  0.76162430  0.47181852    -0.20340
H920        H  0.33276295  0.73127115  0.42570173     0.17430
H921        H  0.22988816  0.69268122  0.45986249     0.17430
F922        F  0.25284807  0.66252436  0.41318860    -0.20330
C923        C  0.19765386  0.75844702  0.45534822    -0.21760
C924        C  0.22584480  0.76926872  0.46764102    -0.09800
C925        C  0.23796918  0.79755724  0.45699478     0.29050
C926        C  0.22404477  0.81276964  0.43189199    -0.21760
C927        C  0.19804273  0.79979213  0.41674668    -0.09820
C928        C  0.18362952  0.77363881  0.43021391     0.29060
F929        F  0.15827255  0.76040023  0.41685927    -0.20340
H930        H  0.18796401  0.73670637  0.46342884     0.17430
H931        H  0.23555285  0.83297200  0.42233251     0.17430
F932        F  0.26500506  0.80881904  0.46874257    -0.20330
C933        C  0.27035827  0.68637332  0.57447591    -0.21760
C934        C  0.29887720  0.69863067  0.58488690    -0.09800
C935        C  0.31296953  0.72243501  0.56745184     0.29050
C936        C  0.29680441  0.73652176  0.54302671    -0.21760
C937        C  0.26662463  0.72682953  0.53539377    -0.09820
C938        C  0.25418364  0.70057613  0.55010172     0.29060
F939        F  0.22511450  0.69058582  0.54296501    -0.20340
H940        H  0.25883716  0.66822764  0.58741558     0.17430
H941        H  0.30673610  0.75669684  0.53198439     0.17430
F942        F  0.34086252  0.73439241  0.57615817    -0.20330
C943        C  0.31451189  0.77782926  0.93408278    -0.21760
C944        C  0.29973363  0.80181677  0.91751070    -0.09800
C945        C  0.27139152  0.81366505  0.92903207     0.29050
C946        C  0.25633590  0.79885364  0.95369814    -0.21760
C947        C  0.26944675  0.77252136  0.96757027    -0.09820
C948        C  0.29949720  0.76323462  0.95890432     0.29060
F949        F  0.31295713  0.73808053  0.97227839    -0.20340
H950        H  0.33632796  0.76827994  0.92588184     0.17430
H951        H  0.23321824  0.80637093  0.96026510     0.17430
F952        F  0.25615955  0.83683679  0.91404202    -0.20330
C953        C  0.22689365  0.81203245  0.57322109    -0.21760
C954        C  0.19979339  0.80023104  0.58727882    -0.09800
C955        C  0.18407429  0.77553747  0.57243317     0.29050
C956        C  0.19768849  0.76038817  0.54695554    -0.21760
C957        C  0.22689284  0.76970126  0.53591214    -0.09820
C958        C  0.24056042  0.79669533  0.54806151     0.29060
F959        F  0.26872815  0.80635722  0.53771453    -0.20340
H960        H  0.23944775  0.83120187  0.58375383     0.17430
H961        H  0.18672509  0.73970467  0.53760511     0.17430
F962        F  0.15751396  0.76368880  0.58456274    -0.20330
C963        C  0.06959124  0.77747345  0.68789891    -0.21760
C964        C  0.08484587  0.80252916  0.70251835    -0.09800
C965        C  0.07211777  0.81461998  0.73020180     0.29050
C966        C  0.04766307  0.79908799  0.74498289    -0.21760
C967        C  0.03530530  0.77173185  0.73221049    -0.09820
C968        C  0.04514633  0.76204972  0.70268829     0.29060
F969        F  0.03325845  0.73592815  0.68956558    -0.20340
H970        H  0.07873658  0.76771952  0.66654561     0.17430
H971        H  0.04011445  0.80693794  0.76769207     0.17430
F972        F  0.08581133  0.83883038  0.74515145    -0.20330
C973        C  0.22736988  0.68741064  0.93033231    -0.21760
C974        C  0.20132272  0.70069367  0.91556101    -0.09800
C975        C  0.18695276  0.72655664  0.92974883     0.29050
C976        C  0.20103727  0.74120564  0.95525866    -0.21760
C977        C  0.22923883  0.73011465  0.96725772    -0.09820
C978        C  0.24133945  0.70206952  0.95583017     0.29060
F979        F  0.26840921  0.69058794  0.96724473    -0.20340
H980        H  0.23886714  0.66738195  0.92024848     0.17430
H981        H  0.19136783  0.76280437  0.96390273     0.17430
F982        F  0.16150503  0.74000728  0.91685726    -0.20330
C983        C  0.07141318  0.68640169  0.77635220    -0.21760
C984        C  0.08541596  0.70005874  0.80258428    -0.09800
C985        C  0.07092587  0.72617499  0.81628167     0.29050
C986        C  0.04621322  0.74093812  0.80122791    -0.21760
C987        C  0.03519030  0.72961139  0.77277075    -0.09820
C988        C  0.04651636  0.70115345  0.76143579     0.29060
F989        F  0.03554307  0.68923898  0.73434603    -0.20340
H990        H  0.08189473  0.66634143  0.76527912     0.17430
H991        H  0.03742524  0.76268465  0.81044211     0.17430
F992        F  0.08293032  0.73961689  0.84223846    -0.20330
C993        C  0.45631715  0.74157897  0.70224838    -0.21760
C994        C  0.46717801  0.72996550  0.73072548    -0.09800
C995        C  0.45546080  0.70167522  0.74169239     0.29050
C996        C  0.43077719  0.68717706  0.72627664    -0.21760
C997        C  0.41682580  0.70106161  0.70009681    -0.09820
C998        C  0.43140552  0.72716924  0.68683171     0.29060
F999        F  0.41926707  0.74108407  0.66129020    -0.20340
H1000       H  0.46532575  0.76330174  0.69338131     0.17430
H1001       H  0.42035684  0.66691819  0.73691041     0.17430
F1002       F  0.46570101  0.68972986  0.76900092    -0.20330
C1003       C  0.45510325  0.79894704  0.75908554    -0.21760
C1004       C  0.46716887  0.77166649  0.77195096    -0.09800
C1005       C  0.45659909  0.76201277  0.80126964     0.29050
C1006       C  0.43159623  0.77732426  0.81558445    -0.21760
C1007       C  0.41675247  0.80235872  0.80072252    -0.09820
C1008       C  0.43034585  0.81440521  0.77336749     0.29060
F1009       F  0.41753767  0.83903550  0.75840634    -0.20340
H1010       H  0.46318775  0.80685847  0.73663469     0.17430
H1011       H  0.42185485  0.76748495  0.83655200     0.17430
F1012       F  0.46846028  0.73609110  0.81465457    -0.20330
C1013       C  0.57089065  0.68661477  0.72583972    -0.21760
C1014       C  0.58554820  0.70078723  0.70026317    -0.09800
C1015       C  0.57180814  0.72757174  0.68740023     0.29050
C1016       C  0.54698154  0.74216949  0.70267792    -0.21760
C1017       C  0.53527162  0.73006840  0.73056490    -0.09820
C1018       C  0.54613599  0.70121851  0.74102906     0.29060
F1019       F  0.53499259  0.68874272  0.76770807    -0.20340
H1020       H  0.58075301  0.66590115  0.73617873     0.17430
H1021       H  0.53867144  0.76434885  0.69420640     0.17430
F1022       F  0.58478331  0.74193962  0.66255940    -0.20330
C1023       C  0.57210557  0.77738344  0.81444609    -0.21760
C1024       C  0.58569864  0.80323310  0.79983511    -0.09800
C1025       C  0.57095763  0.81557404  0.77322848     0.29050
C1026       C  0.54614637  0.79979108  0.75929773    -0.21760
C1027       C  0.53536680  0.77178347  0.77176111    -0.09820
C1028       C  0.54724052  0.76162374  0.80041202     0.29060
F1029       F  0.53682653  0.73485342  0.81329509    -0.20340
H1030       H  0.58283050  0.76726040  0.83481463     0.17430
H1031       H  0.53706813  0.80804826  0.73733950     0.17430
F1032       F  0.58267037  0.84093868  0.75864416    -0.20330
C1033       C  0.93132765  0.77336635  0.68791166    -0.21760
C1034       C  0.91776617  0.80048765  0.70035142    -0.09800
C1035       C  0.93249822  0.81506922  0.72578116     0.29050
C1036       C  0.95712943  0.80017413  0.74107758    -0.21760
C1037       C  0.96742431  0.77087195  0.73107858    -0.09820
C1038       C  0.95558609  0.75840068  0.70339629     0.29060
F1039       F  0.96524283  0.73016272  0.69312890    -0.20340
H1040       H  0.92080654  0.76170662  0.66817472     0.17430
H1041       H  0.96636875  0.81025355  0.76225158     0.17430
F1042       F  0.92078215  0.84158721  0.73824271    -0.20330
C1043       C  0.93051687  0.72891510  0.81629399    -0.21760
C1044       C  0.91700397  0.70171500  0.80392283    -0.09800
C1045       C  0.93200298  0.68686209  0.77883552     0.29050
C1046       C  0.95684887  0.70152819  0.76374078    -0.21760
C1047       C  0.96722050  0.73082766  0.77365759    -0.09820
C1048       C  0.95514666  0.74356342  0.80110215     0.29060
F1049       F  0.96505927  0.77170365  0.81142745    -0.20340
H1050       H  0.91981855  0.74079102  0.83578757     0.17430
H1051       H  0.96622514  0.69125580  0.74273405     0.17430
F1052       F  0.92040076  0.66023702  0.76647693    -0.20330
C1053       C  0.70476808  0.55231978  0.75283590    -0.21760
C1054       C  0.72928508  0.53628118  0.73856422    -0.09800
C1055       C  0.73717123  0.54362059  0.70777914     0.29050
C1056       C  0.72293874  0.56883120  0.69285330    -0.21760
C1057       C  0.70052762  0.58699882  0.70833547    -0.09820
C1058       C  0.69033184  0.57732598  0.73792038     0.29060
F1059       F  0.66931164  0.59432360  0.75420794    -0.20340
H1060       H  0.69841192  0.54700555  0.77655097     0.17430
H1061       H  0.73137238  0.57577712  0.67023013     0.17430
F1062       F  0.76066411  0.52839162  0.69326337    -0.20330
C1063       C  0.76196992  0.54620719  0.80709580    -0.21760
C1064       C  0.77208372  0.53462337  0.77835304    -0.09800
C1065       C  0.79996970  0.54567903  0.76570884     0.29050
C1066       C  0.81543306  0.57052244  0.77972218    -0.21760
C1067       C  0.80270693  0.58546123  0.80592501    -0.09820
C1068       C  0.77724782  0.57142811  0.82101212     0.29060
F1069       F  0.76466664  0.58436474  0.84689414    -0.20340
H1070       H  0.74058921  0.53767321  0.81723564     0.17430
H1071       H  0.83522832  0.58043771  0.76776173     0.17430
F1072       F  0.81018011  0.53504688  0.73781258    -0.20330
C1073       C  0.68736249  0.43558292  0.72414291    -0.21760
C1074       C  0.70355049  0.41915285  0.70088244    -0.09800
C1075       C  0.73256522  0.43059770  0.69097889     0.29050
C1076       C  0.74691438  0.45479700  0.70731579    -0.21760
C1077       C  0.73236184  0.46826976  0.73317621    -0.09820
C1078       C  0.70170330  0.45992723  0.74030388     0.29060
F1079       F  0.68702651  0.47289148  0.76504566    -0.20340
H1080       H  0.66500684  0.42730494  0.73220630     0.17430
H1081       H  0.77052968  0.46118094  0.70144701     0.17430
F1082       F  0.74911099  0.41559900  0.66867689    -0.20330
C1083       C  0.81491138  0.43200128  0.78410319    -0.21760
C1084       C  0.79905613  0.41524887  0.80728575    -0.09800
C1085       C  0.77024766  0.42679065  0.81784894     0.29050
C1086       C  0.75620649  0.45205940  0.80289012    -0.21760
C1087       C  0.77061043  0.46639691  0.77745135    -0.09820
C1088       C  0.80078500  0.45721831  0.76916562     0.29060
F1089       F  0.81531721  0.47055984  0.74463845    -0.20340
H1090       H  0.83701681  0.42365237  0.77535698     0.17430
H1091       H  0.73283800  0.45876790  0.80948707     0.17430
F1092       F  0.75371108  0.41130416  0.83973583    -0.20330
C1093       C  0.81737186  0.07233264  0.72210939    -0.21760
C1094       C  0.80161220  0.08707193  0.69754468    -0.09800
C1095       C  0.77455076  0.07279863  0.68553622     0.29050
C1096       C  0.76129498  0.04738338  0.70075247    -0.21760
C1097       C  0.77493465  0.03542391  0.72775103    -0.09820
C1098       C  0.80410930  0.04670624  0.73716592     0.29060
F1099       F  0.81845891  0.03473588  0.76252981    -0.20340
H1100       H  0.83828685  0.08250064  0.73179100     0.17430
H1101       H  0.73891736  0.03875397  0.69302750     0.17430
F1102       F  0.75893564  0.08541251  0.66120031    -0.20330
C1103       C  0.73271593  0.07314752  0.81230699    -0.21760
C1104       C  0.70496317  0.08510492  0.79982290    -0.09800
C1105       C  0.69047090  0.06874059  0.77530822     0.29050
C1106       C  0.70574890  0.04393845  0.76084769    -0.21760
C1107       C  0.73542232  0.03489385  0.77074927    -0.09820
C1108       C  0.74796811  0.04833091  0.79775751     0.29060
F1109       F  0.77619530  0.03928756  0.80848464    -0.20340
H1110       H  0.74442479  0.08509618  0.83115933     0.17430
H1111       H  0.69565381  0.03361059  0.74018487     0.17430
F1112       F  0.66317095  0.07880761  0.76308660    -0.20330
C1113       C  0.70327447  0.95604411  0.75668854    -0.21760
C1114       C  0.73216476  0.96708559  0.76710563    -0.09800
C1115       C  0.74448054  0.95552016  0.79493668     0.29050
C1116       C  0.72984425  0.93088778  0.81015893    -0.21760
C1117       C  0.70303855  0.91685172  0.79749472    -0.09820
C1118       C  0.68867534  0.93113632  0.77174605     0.29060
F1119       F  0.66252870  0.91895274  0.75892971    -0.20340
H1120       H  0.69321753  0.96507651  0.73549964     0.17430
H1121       H  0.74138504  0.92074083  0.83007559     0.17430
F1122       F  0.77231299  0.96589215  0.80564081    -0.20330
C1123       C  0.80211764  0.95891003  0.73365612    -0.21760
C1124       C  0.77204680  0.96731936  0.72437596    -0.09800
C1125       C  0.75885080  0.95286760  0.69821331     0.29050
C1126       C  0.77393962  0.92774016  0.68403547    -0.21760
C1127       C  0.80211395  0.91640527  0.69616025    -0.09820
C1128       C  0.81718516  0.93372680  0.71962105     0.29060
F1129       F  0.84484556  0.92417200  0.73143756    -0.20340
H1130       H  0.81269146  0.96993183  0.75369967     0.17430
H1131       H  0.76175235  0.91499380  0.66602835     0.17430
F1132       F  0.73010748  0.96113528  0.68821252    -0.20330
C1133       C  0.74566640  0.69623290  0.54867460    -0.21760
C1134       C  0.73324540  0.72278618  0.53453597    -0.09800
C1135       C  0.70352828  0.73301581  0.54323557     0.29050
C1136       C  0.68828250  0.71919266  0.56833936    -0.21760
C1137       C  0.70259744  0.69520208  0.58533206    -0.09820
C1138       C  0.73041986  0.68228110  0.57375166     0.29060
F1139       F  0.74509061  0.65896724  0.58907206    -0.20340
H1140       H  0.76853031  0.68799123  0.54210405     0.17430
H1141       H  0.66682602  0.72952361  0.57653916     0.17430
F1142       F  0.69080625  0.75850874  0.52978076    -0.20330
C1143       C  0.80177117  0.75270938  0.54859370    -0.21760
C1144       C  0.77431151  0.76441294  0.53548421    -0.09800
C1145       C  0.76311786  0.79336080  0.54557081     0.29050
C1146       C  0.77737500  0.80870459  0.57048934    -0.21760
C1147       C  0.80269510  0.79520211  0.58623630    -0.09820
C1148       C  0.81603030  0.76796131  0.57368380     0.29060
F1149       F  0.84052921  0.75399025  0.58780212    -0.20340
H1150       H  0.81073389  0.73041145  0.54105671     0.17430
H1151       H  0.76658180  0.82964395  0.57942534     0.17430
F1152       F  0.73654575  0.80527889  0.53350372    -0.20330
C1153       C  0.72777546  0.68422439  0.42715841    -0.21760
C1154       C  0.70134530  0.69869336  0.41437691    -0.09800
C1155       C  0.68829267  0.72418008  0.43045986     0.29050
C1156       C  0.70375698  0.73726277  0.45596695    -0.21760
C1157       C  0.73216530  0.72503344  0.46617415    -0.09820
C1158       C  0.74317907  0.69737962  0.45274889     0.29060
F1159       F  0.77045335  0.68484747  0.46242989    -0.20340
H1160       H  0.73847031  0.66466282  0.41543570     0.17430
H1161       H  0.69483944  0.75851484  0.46609927     0.17430
F1162       F  0.66233945  0.73851048  0.41965387    -0.20330
C1163       C  0.92987545  0.81474326  0.27717940    -0.21760
C1164       C  0.91449189  0.79720190  0.30005860    -0.09800
C1165       C  0.92769867  0.76847658  0.30905224     0.29050
C1166       C  0.95275969  0.75599798  0.29262321    -0.21760
C1167       C  0.96551907  0.77190437  0.26735935    -0.09820
C1168       C  0.95523747  0.80218709  0.26092194     0.29060
F1169       F  0.96779236  0.81841570  0.23705922    -0.20340
H1170       H  0.92050159  0.83686014  0.26975129     0.17430
H1171       H  0.96059557  0.73271399  0.29804075     0.17430
F1172       F  0.91438965  0.75068764  0.33140747    -0.20330
C1173       C  0.77586596  0.81081574  0.43287861    -0.21760
C1174       C  0.80159606  0.79781289  0.41738024    -0.09800
C1175       C  0.81564749  0.77108992  0.43012305     0.29050
C1176       C  0.80148745  0.75551725  0.45489465    -0.21760
C1177       C  0.77342766  0.76639524  0.46736449    -0.09820
C1178       C  0.76163018  0.79506814  0.45738479     0.29060
F1179       F  0.73451859  0.80618766  0.46902250    -0.20340
H1180       H  0.76461337  0.83143914  0.42383716     0.17430
H1181       H  0.81093386  0.73346234  0.46248280     0.17430
F1182       F  0.84067433  0.75773802  0.41632056    -0.20330
C1183       C  0.92600993  0.73081799  0.18338510    -0.21760
C1184       C  0.91555106  0.70234782  0.19552463    -0.09800
C1185       C  0.93348727  0.68771504  0.21868918     0.29050
C1186       C  0.95850844  0.70340501  0.23241161    -0.21760
C1187       C  0.96602522  0.73368313  0.22309498    -0.09820
C1188       C  0.95083990  0.74656275  0.19731350     0.29060
F1189       F  0.95791625  0.77570673  0.18767473    -0.20340
H1190       H  0.91274810  0.74271568  0.16563972     0.17430
H1191       H  0.97013880  0.69311000  0.25218193     0.17430
F1192       F  0.92479283  0.65977880  0.23039772    -0.20330
C1193       C  0.68366555  0.77474544  0.07352594    -0.21760
C1194       C  0.69647589  0.80249955  0.08518328    -0.09800
C1195       C  0.72066502  0.81680187  0.06834786     0.29050
C1196       C  0.73458361  0.80130645  0.04335058    -0.21760
C1197       C  0.72451122  0.77155205  0.03468482    -0.09820
C1198       C  0.69775814  0.75919940  0.04864593     0.29060
F1199       F  0.68697299  0.73080655  0.04012595    -0.20340
H1200       H  0.66506883  0.76314752  0.08587897     0.17430
H1201       H  0.75504734  0.81127675  0.03261905     0.17430
F1202       F  0.73318244  0.84406572  0.07820020    -0.20330
C1203       C  0.75511131  0.70253866  0.04678354    -0.21760
C1204       C  0.76632849  0.73070576  0.03494004    -0.09800
C1205       C  0.79480251  0.74230511  0.04581241     0.29050
C1206       C  0.80992719  0.72783603  0.07062811    -0.21760
C1207       C  0.79661204  0.70187229  0.08538872    -0.09820
C1208       C  0.77014244  0.68804829  0.07177065     0.29060
F1209       F  0.75660459  0.66274269  0.08475805    -0.20340
H1210       H  0.73339938  0.69304636  0.03831408     0.17430
H1211       H  0.83036502  0.73892670  0.08032215     0.17430
F1212       F  0.80625479  0.76945693  0.03463928    -0.20330
C1213       C  0.77372350  0.69078651  0.93103068    -0.21760
C1214       C  0.79988058  0.70427197  0.91670085    -0.09800
C1215       C  0.81349867  0.73058832  0.93079611     0.29050
C1216       C  0.79858609  0.74540742  0.95572224    -0.21760
C1217       C  0.77025656  0.73403868  0.96711818    -0.09820
C1218       C  0.75885535  0.70566626  0.95580336     0.29060
F1219       F  0.73151018  0.69412076  0.96643311    -0.20340
H1220       H  0.76277320  0.67043657  0.92099467     0.17430
H1221       H  0.80781518  0.76715113  0.96442797     0.17430
F1222       F  0.83904607  0.74418032  0.91832825    -0.20330
C1223       C  0.74445192  0.80217976  0.95280720    -0.21760
C1224       C  0.73018805  0.77658927  0.96695469    -0.09800
C1225       C  0.69985869  0.76839732  0.95813188     0.29050
C1226       C  0.68570060  0.78311746  0.93285270    -0.21760
C1227       C  0.70168007  0.80606134  0.91594644    -0.09820
C1228       C  0.73030343  0.81704230  0.92760911     0.29060
F1229       F  0.74667982  0.83912921  0.91222568    -0.20340
H1230       H  0.76772553  0.80894454  0.95954190     0.17430
H1231       H  0.66365903  0.77426991  0.92450733     0.17430
F1232       F  0.68537964  0.74389434  0.97161722    -0.20330
C1233       C  0.70264483  0.25863636  0.55075162    -0.21760
C1234       C  0.72798730  0.27316499  0.53638801    -0.09800
C1235       C  0.73610380  0.30344815  0.54540718     0.29050
C1236       C  0.72147812  0.31736299  0.57092093    -0.21760
C1237       C  0.69876539  0.30116318  0.58795776    -0.09820
C1238       C  0.68791744  0.27251449  0.57623380     0.29060
F1239       F  0.66613097  0.25588263  0.59177968    -0.20340
H1240       H  0.69608451  0.23527563  0.54400267     0.17430
H1241       H  0.73024632  0.33944261  0.57931292     0.17430
F1242       F  0.76040006  0.31816800  0.53181360    -0.20330
C1243       C  0.76174617  0.20502158  0.54658564    -0.21760
C1244       C  0.77154008  0.23416900  0.53592096    -0.09800
C1245       C  0.79925874  0.24685768  0.54750993     0.29050
C1246       C  0.81494436  0.23228966  0.57191668    -0.21760
C1247       C  0.80291921  0.20512129  0.58556638    -0.09820
C1248       C  0.77738272  0.19038581  0.57111287     0.29060
F1249       F  0.76519758  0.16384092  0.58291467    -0.20340
H1250       H  0.74050594  0.19484444  0.53765668     0.17430
H1251       H  0.83467330  0.24409605  0.58222825     0.17430
F1252       F  0.80945928  0.27488514  0.53736861    -0.20330
C1253       C  0.75943782  0.95422736  0.30054283    -0.21760
C1254       C  0.77189909  0.96615395  0.27291029    -0.09800
C1255       C  0.80084316  0.95526655  0.26263929     0.29050
C1256       C  0.81528315  0.93042229  0.27781432    -0.21760
C1257       C  0.80089659  0.91568438  0.30323428    -0.09820
C1258       C  0.77387986  0.92933563  0.31582799     0.29060
F1259       F  0.75924542  0.91632097  0.34049397    -0.20340
H1260       H  0.73717158  0.96253405  0.30887686     0.17430
H1261       H  0.83614174  0.92063888  0.26761769     0.17430
F1262       F  0.81360280  0.96653959  0.23614407    -0.20330
C1263       C  0.70264745  0.95601491  0.24356289    -0.21760
C1264       C  0.73061214  0.96712940  0.23132062    -0.09800
C1265       C  0.74073930  0.95614861  0.20228561     0.29050
C1266       C  0.72523824  0.93138262  0.18780413    -0.21760
C1267       C  0.69958900  0.91726831  0.20227986    -0.09820
C1268       C  0.68697179  0.93152064  0.22905363     0.29060
F1269       F  0.66157805  0.91944373  0.24332414    -0.20340
H1270       H  0.69434535  0.96454826  0.26575740     0.17430
H1271       H  0.73545822  0.92109297  0.16721549     0.17430
F1272       F  0.76731178  0.96725503  0.18951653    -0.20330
C1273       C  0.68865808  0.07055033  0.22789993    -0.21760
C1274       C  0.70227938  0.08606872  0.20255169    -0.09800
C1275       C  0.72937748  0.07323897  0.18920048     0.29050
C1276       C  0.74439804  0.04812353  0.20342826    -0.21760
C1277       C  0.73259430  0.03518078  0.23083367    -0.09820
C1278       C  0.70371053  0.04541307  0.24201323     0.29060
F1279       F  0.69159098  0.03310293  0.26835335    -0.20340
H1280       H  0.66781769  0.07970481  0.23868827     0.17430
H1281       H  0.76659798  0.04038876  0.19441960     0.17430
F1282       F  0.74351022  0.08712711  0.16471497    -0.20330
C1283       C  0.72609716  0.31758722  0.43047780    -0.21760
C1284       C  0.69976788  0.30361462  0.41701211    -0.09800
C1285       C  0.68627338  0.27788012  0.43221101     0.29050
C1286       C  0.70139398  0.26393463  0.45737454    -0.21760
C1287       C  0.72988641  0.27554643  0.46801979    -0.09820
C1288       C  0.74120755  0.30353934  0.45566301     0.29060
F1289       F  0.76848143  0.31563747  0.46589227    -0.20340
H1290       H  0.73708719  0.33728503  0.41939281     0.17430
H1291       H  0.69227115  0.24246989  0.46675966     0.17430
F1292       F  0.66038561  0.26401093  0.42059392    -0.20330
C1293       C  0.95191325  0.24433311  0.30277635    -0.21760
C1294       C  0.96539756  0.23147936  0.27603481    -0.09800
C1295       C  0.95536607  0.20220603  0.26566246     0.29050
C1296       C  0.92989880  0.18775783  0.27978380    -0.21760
C1297       C  0.91383305  0.20242737  0.30426489    -0.09820
C1298       C  0.92641515  0.22996621  0.31695152     0.29060
F1299       F  0.91188337  0.24516079  0.34049014    -0.20340
H1300       H  0.95949623  0.26681018  0.31118323     0.17430
H1301       H  0.92089447  0.16657812  0.26953720     0.17430
F1302       F  0.96807906  0.18914430  0.23990884    -0.20330
C1303       C  0.75786194  0.20563807  0.45677470    -0.21760
C1304       C  0.77056853  0.23346501  0.46813082    -0.09800
C1305       C  0.79973468  0.24312678  0.45739249     0.29050
C1306       C  0.81412304  0.22716462  0.43299666    -0.21760
C1307       C  0.79938839  0.20164046  0.41861593    -0.09820
C1308       C  0.77220458  0.18961699  0.43230476     0.29060
F1309       F  0.75726082  0.16489513  0.41957051    -0.20340
H1310       H  0.73545126  0.19777592  0.46507912     0.17430
H1311       H  0.83517524  0.23683227  0.42317506     0.17430
F1312       F  0.81288558  0.26960491  0.46841948    -0.20330
C1313       C  0.76178916  0.04382639  0.30123868    -0.21760
C1314       C  0.77362909  0.03418177  0.27249343    -0.09800
C1315       C  0.80158124  0.04700617  0.26172208     0.29050
C1316       C  0.81528108  0.07192357  0.27759638    -0.21760
C1317       C  0.80090583  0.08463998  0.30408783    -0.09820
C1318       C  0.77534950  0.06877017  0.31710563     0.29060
F1319       F  0.76123972  0.07955795  0.34320156    -0.20340
H1320       H  0.74039135  0.03388922  0.30999221     0.17430
H1321       H  0.83498542  0.08346490  0.26704171     0.17430
F1322       F  0.81387014  0.03753093  0.23426655    -0.20330
C1323       C  0.92994477  0.31443716  0.22857108    -0.21760
C1324       C  0.91719770  0.30018224  0.20198961    -0.09800
C1325       C  0.93271042  0.27424738  0.18914277     0.29050
C1326       C  0.95712891  0.26021071  0.20528400    -0.21760
C1327       C  0.96677696  0.27202201  0.23405310    -0.09820
C1328       C  0.95451705  0.30035757  0.24462267     0.29060
F1329       F  0.96433762  0.31283556  0.27190276    -0.20340
H1330       H  0.91870846  0.33445929  0.23896777     0.17430
H1331       H  0.96668117  0.23853461  0.19665813     0.17430
F1332       F  0.92195946  0.26022445  0.16294481    -0.20330
C1333       C  0.72728061  0.18428742  0.07287162    -0.21760
C1334       C  0.70041970  0.19766017  0.08604493    -0.09800
C1335       C  0.68629872  0.22277221  0.07050058     0.29050
C1336       C  0.70146042  0.23693890  0.04541883    -0.21760
C1337       C  0.73056295  0.22611190  0.03544518    -0.09820
C1338       C  0.74248090  0.19861771  0.04809026     0.29060
F1339       F  0.77049190  0.18753417  0.03871746    -0.20340
H1340       H  0.73857667  0.16473433  0.08400003     0.17430
H1341       H  0.69183760  0.25802217  0.03562531     0.17430
F1342       F  0.66003432  0.23608391  0.08179885    -0.20330
C1343       C  0.80066343  0.25747673  0.04664323    -0.21760
C1344       C  0.77158539  0.26783488  0.03608697    -0.09800
C1345       C  0.75949011  0.29571945  0.04779503     0.29050
C1346       C  0.77456480  0.31106689  0.07214888    -0.21760
C1347       C  0.80145831  0.29835620  0.08589621    -0.09820
C1348       C  0.81567931  0.27265821  0.07133860     0.29060
F1349       F  0.84197690  0.25993179  0.08321589    -0.20340
H1350       H  0.81048215  0.23614826  0.03748913     0.17430
H1351       H  0.76318035  0.33103698  0.08251478     0.17430
F1352       F  0.73156552  0.30644945  0.03777782    -0.20330
C1353       C  0.72784668  0.18452825  0.92952045    -0.21760
C1354       C  0.70145356  0.19834204  0.91583319    -0.09800
C1355       C  0.68775354  0.22396472  0.93101918     0.29050
C1356       C  0.70279995  0.23792748  0.95642108    -0.21760
C1357       C  0.73138764  0.22642194  0.96715018    -0.09820
C1358       C  0.74291270  0.19862293  0.95467227     0.29060
F1359       F  0.77038683  0.18683761  0.96474892    -0.20340
H1360       H  0.73887001  0.16462909  0.91864303     0.17430
H1361       H  0.69350401  0.25931101  0.96599077     0.17430
F1362       F  0.66205056  0.23785290  0.91914697    -0.20330
C1363       C  0.77803171  0.31195782  0.93454136    -0.21760
C1364       C  0.80417044  0.29846754  0.92008594    -0.09800
C1365       C  0.81735847  0.27171293  0.93353467     0.29050
C1366       C  0.80173794  0.25627434  0.95753431    -0.21760
C1367       C  0.77313669  0.26746833  0.96849134    -0.09820
C1368       C  0.76230884  0.29634003  0.95816934     0.29060
F1369       F  0.73483499  0.30780968  0.96859911    -0.20340
H1370       H  0.76750229  0.33275346  0.92503261     0.17430
H1371       H  0.81063012  0.23422000  0.96573849     0.17430
F1372       F  0.84298465  0.25825605  0.92100555    -0.20330
C1373       C  0.70142921  0.45446952  0.25649036    -0.21760
C1374       C  0.72914736  0.46694106  0.26832836    -0.09800
C1375       C  0.73963727  0.45743213  0.29766430     0.29050
C1376       C  0.72459888  0.43324513  0.31318824    -0.21760
C1377       C  0.69925663  0.41771273  0.29939074    -0.09820
C1378       C  0.68636764  0.43013367  0.27194527     0.29060
F1379       F  0.66167500  0.41635490  0.25790279    -0.20340
H1380       H  0.69291721  0.46178932  0.23399621     0.17430
H1381       H  0.73493965  0.42444774  0.33435973     0.17430
F1382       F  0.76629647  0.46919570  0.30977303    -0.20330
C1383       C  0.81410916  0.43022698  0.22353600    -0.21760
C1384       C  0.79949764  0.41383810  0.19921186    -0.09800
C1385       C  0.77201215  0.42628477  0.18632508     0.29050
C1386       C  0.75756685  0.45193541  0.20027241    -0.21760
C1387       C  0.77036125  0.46576123  0.22690497    -0.09820
C1388       C  0.79962326  0.45586565  0.23739097     0.29060
F1389       F  0.81261512  0.46881239  0.26307958    -0.20340
H1390       H  0.83524644  0.42133850  0.23392425     0.17430
H1391       H  0.73500749  0.45930880  0.19189737     0.17430
F1392       F  0.75691116  0.41147172  0.16286746    -0.20330
C1393       C  0.75980539  0.54553216  0.19958066    -0.21760
C1394       C  0.77213610  0.53424221  0.22747039    -0.09800
C1395       C  0.80078181  0.54588929  0.23807132     0.29050
C1396       C  0.81479840  0.57110811  0.22301946    -0.21760
C1397       C  0.80019497  0.58524474  0.19744700    -0.09820
C1398       C  0.77373244  0.57066870  0.18449337     0.29060
F1399       F  0.75918050  0.58290804  0.15931902    -0.20340
H1400       H  0.73782429  0.53669533  0.19099848     0.17430
H1401       H  0.83509764  0.58167549  0.23355570     0.17430
F1402       F  0.81365402  0.53493851  0.26465367    -0.20330
C1403       C  0.70247788  0.54578806  0.25723202    -0.21760
C1404       C  0.73084080  0.53469811  0.26891764    -0.09800
C1405       C  0.74165856  0.54587982  0.29757613     0.29050
C1406       C  0.72613538  0.57021736  0.31249680    -0.21760
C1407       C  0.69997269  0.58431869  0.29873087    -0.09820
C1408       C  0.68695169  0.57033068  0.27206476     0.29060
F1409       F  0.66151829  0.58270992  0.25811439    -0.20340
H1410       H  0.69372956  0.53718262  0.23522037     0.17430
H1411       H  0.73660531  0.58022057  0.33313467     0.17430
F1412       F  0.76879182  0.53533583  0.30968684    -0.20330
C1413       C  0.30010963  0.54945167  0.74498513    -0.21760
C1414       C  0.27416218  0.53539374  0.73110757    -0.09800
C1415       C  0.26489569  0.54496637  0.70135559     0.29050
C1416       C  0.27916878  0.57056143  0.68735458    -0.21760
C1417       C  0.30271450  0.58716532  0.70293263    -0.09820
C1418       C  0.31447529  0.57504836  0.73102358     0.29060
F1419       F  0.33704288  0.59019892  0.74710127    -0.20340
H1420       H  0.30753167  0.54233040  0.76791342     0.17430
H1421       H  0.26964812  0.57925848  0.66577404     0.17430
F1422       F  0.23982483  0.53184472  0.68738331    -0.20330
C1423       C  0.24301286  0.54649217  0.79943713    -0.21760
C1424       C  0.23171705  0.53465310  0.77121437    -0.09800
C1425       C  0.20282189  0.54481920  0.76011210     0.29050
C1426       C  0.18738927  0.56921562  0.77504619    -0.21760
C1427       C  0.20081415  0.58412811  0.80098809    -0.09820
C1428       C  0.22756316  0.57087468  0.81449939     0.29060
F1429       F  0.24105775  0.58388540  0.83991394    -0.20340
H1430       H  0.26513266  0.53860865  0.80845260     0.17430
H1431       H  0.16668346  0.57861885  0.76425910     0.17430
F1432       F  0.19117778  0.53343460  0.73305374    -0.20330
C1433       C  0.95964731  0.26445724  0.80045606    -0.21760
C1434       C  0.96872274  0.27528894  0.77115970    -0.09800
C1435       C  0.95490192  0.30240729  0.75940568     0.29050
C1436       C  0.92981191  0.31615123  0.77495084    -0.21760
C1437       C  0.91785677  0.30275562  0.80221112    -0.09820
C1438       C  0.93454531  0.27812526  0.81603439     0.29060
F1439       F  0.92454345  0.26503029  0.84289431    -0.20340
H1440       H  0.97018363  0.24366632  0.80995017     0.17430
H1441       H  0.91764277  0.33509889  0.76372213     0.17430
F1442       F  0.96375046  0.31394259  0.73148943    -0.20330
C1443       C  0.95699785  0.20567450  0.74310462    -0.21760
C1444       C  0.96826692  0.23333353  0.73030122    -0.09800
C1445       C  0.95703254  0.24304965  0.70126514     0.29050
C1446       C  0.93200060  0.22746686  0.68730765    -0.21760
C1447       C  0.91789423  0.20203645  0.70222349    -0.09820
C1448       C  0.93225508  0.18989515  0.72911916     0.29060
F1449       F  0.92030256  0.16474829  0.74388338    -0.20340
H1450       H  0.96570507  0.19768089  0.76531201     0.17430
H1451       H  0.92175343  0.23727178  0.66654445     0.17430
F1452       F  0.96851911  0.26902181  0.68768675    -0.20330
C1453       C  0.04786495  0.24511533  0.70346235    -0.21760
C1454       C  0.03615673  0.23181301  0.73066073    -0.09800
C1455       C  0.04684908  0.20236706  0.73975543     0.29050
C1456       C  0.07173626  0.18835036  0.72399361    -0.21760
C1457       C  0.08629371  0.20365261  0.69906487    -0.09820
C1458       C  0.07249714  0.23116277  0.68756419     0.29060
F1459       F  0.08502081  0.24662264  0.66312090    -0.20340
H1460       H  0.03968262  0.26772024  0.69602062     0.17430
H1461       H  0.08159380  0.16719426  0.73337129     0.17430
F1462       F  0.03512177  0.18852562  0.76548533    -0.20330
C1463       C  0.27774632  0.42914807  0.68659256    -0.21760
C1464       C  0.30291602  0.41522039  0.70215192    -0.09800
C1465       C  0.31501749  0.43019042  0.72882033     0.29050
C1466       C  0.29962203  0.45572999  0.74175407    -0.21760
C1467       C  0.27217974  0.46694763  0.72834689    -0.09820
C1468       C  0.26232161  0.45469725  0.69970140     0.29060
F1469       F  0.23604666  0.46543616  0.68598082    -0.20340
H1470       H  0.26785785  0.41830837  0.66609965     0.17430
H1471       H  0.30754632  0.46496342  0.76383406     0.17430
F1472       F  0.33965263  0.41814976  0.74444916    -0.20330
C1473       C  0.19059670  0.27596716  0.93085806    -0.21760
C1474       C  0.20358549  0.30256861  0.91694810    -0.09800
C1475       C  0.22949784  0.31661481  0.93134268     0.29050
C1476       C  0.24446161  0.30175310  0.95619013    -0.21760
C1477       C  0.23372573  0.27296850  0.96703821    -0.09820
C1478       C  0.20575883  0.26101062  0.95532695     0.29060
F1479       F  0.19480750  0.23322844  0.96535773    -0.20340
H1480       H  0.17055880  0.26467998  0.92052991     0.17430
H1481       H  0.26593591  0.31137803  0.96518717     0.17430
F1482       F  0.24269464  0.34247390  0.91911756    -0.20330
C1483       C  0.22403985  0.43466084  0.81380380    -0.21760
C1484       C  0.20052098  0.41730742  0.79906291    -0.09800
C1485       C  0.18887969  0.42783723  0.77028321     0.29050
C1486       C  0.20346379  0.45241547  0.75488463    -0.21760
C1487       C  0.22941373  0.46707605  0.76804791    -0.09820
C1488       C  0.23847071  0.45932149  0.79839788     0.29060
F1489       F  0.26341376  0.47331696  0.81175676    -0.20340
H1490       H  0.23344058  0.42713672  0.83587603     0.17430
H1491       H  0.19606023  0.45832219  0.73161824     0.17430
F1492       F  0.16628810  0.41190784  0.75500554    -0.20330
C1493       C  0.07214098  0.31491652  0.77976626    -0.21760
C1494       C  0.08909207  0.29899824  0.80277401    -0.09800
C1495       C  0.07725756  0.27057897  0.81394451     0.29050
C1496       C  0.05157003  0.25672368  0.79950071    -0.21760
C1497       C  0.03708788  0.27101049  0.77407105    -0.09820
C1498       C  0.04635919  0.30104328  0.76547229     0.29060
F1499       F  0.03268016  0.31547184  0.74101831    -0.20340
H1500       H  0.08063788  0.33676550  0.77070862     0.17430
H1501       H  0.04466410  0.23359711  0.80646254     0.17430
F1502       F  0.09278021  0.25412987  0.83591603    -0.20330
C1503       C  0.26415971  0.20280195  0.95722870    -0.21760
C1504       C  0.27525710  0.23171521  0.96753530    -0.09800
C1505       C  0.30318938  0.24317533  0.95541681     0.29050
C1506       C  0.31778102  0.22771383  0.93084212    -0.21760
C1507       C  0.30428816  0.20101642  0.91737023    -0.09820
C1508       C  0.27859636  0.18737648  0.93238048     0.29060
F1509       F  0.26506773  0.16133430  0.92075970    -0.20340
H1510       H  0.24276096  0.19349977  0.96662646     0.17430
H1511       H  0.33773979  0.23866440  0.92011638     0.17430
F1512       F  0.31458790  0.27095562  0.96515755    -0.20330
C1513       C  0.24516540  0.04869090  0.70029457    -0.21760
C1514       C  0.23356995  0.03593204  0.72787267    -0.09800
C1515       C  0.20500906  0.04661475  0.73946980     0.29050
C1516       C  0.19014846  0.07197931  0.72559751    -0.21760
C1517       C  0.20370727  0.08739094  0.70015893    -0.09820
C1518       C  0.23036299  0.07410468  0.68634754     0.29060
F1519       F  0.24432119  0.08776842  0.66163796    -0.20340
H1520       H  0.26712062  0.04061273  0.69096826     0.17430
H1521       H  0.16960705  0.08142567  0.73671787     0.17430
F1522       F  0.19308988  0.03454666  0.76601133    -0.20330
C1523       C  0.31653676  0.07195986  0.77498906    -0.21760
C1524       C  0.30232598  0.08455358  0.80162389    -0.09800
C1525       C  0.27657502  0.06883995  0.81446977     0.29050
C1526       C  0.26277917  0.04414754  0.79837996    -0.21760
C1527       C  0.27456019  0.03462608  0.76956623    -0.09820
C1528       C  0.30258482  0.04735259  0.75887887     0.29060
F1529       F  0.31469687  0.03814068  0.73125399    -0.20340
H1530       H  0.33635335  0.08339256  0.76452780     0.17430
H1531       H  0.24132606  0.03428217  0.80707062     0.17430
F1532       F  0.26259039  0.07950437  0.84068201    -0.20330
C1533       C  0.22948787  0.92818894  0.68654438    -0.21760
C1534       C  0.20146785  0.91722236  0.69929036    -0.09800
C1535       C  0.18717739  0.93469461  0.72306105     0.29050
C1536       C  0.20290674  0.95969948  0.73674419    -0.21760
C1537       C  0.23283722  0.96772747  0.72673842    -0.09820
C1538       C  0.24524831  0.95306247  0.70038422     0.29060
F1539       F  0.27406616  0.96062062  0.69009814    -0.20340
H1540       H  0.24111156  0.91528401  0.66831141     0.17430
H1541       H  0.19299168  0.97086365  0.75700764     0.17430
F1542       F  0.15964042  0.92551753  0.73537346    -0.20330
C1543       C  0.31495137  0.93071910  0.77833974    -0.21760
C1544       C  0.29796138  0.91512894  0.80148846    -0.09800
C1545       C  0.26951408  0.92830536  0.81143646     0.29050
C1546       C  0.25667110  0.95356733  0.79566268    -0.21760
C1547       C  0.27195726  0.96657480  0.77014098    -0.09820
C1548       C  0.30205395  0.95629335  0.76276085     0.29060
F1549       F  0.31772203  0.96908497  0.73864504    -0.20340
H1550       H  0.33686079  0.92137208  0.77019143     0.17430
H1551       H  0.23354434  0.96140756  0.80182307     0.17430
F1552       F  0.25231007  0.91481694  0.83414550    -0.20330
C1553       C  0.26194941  0.29870022  0.45526480    -0.21760
C1554       C  0.27524551  0.27115799  0.46630768    -0.09800
C1555       C  0.30375996  0.26117444  0.45400681     0.29050
C1556       C  0.31669737  0.27641682  0.42838137    -0.21760
C1557       C  0.30114573  0.30160612  0.41453847    -0.09820
C1558       C  0.27483001  0.31403196  0.42973848     0.29060
F1559       F  0.25950175  0.33894641  0.41794699    -0.20340
H1560       H  0.24005734  0.30682427  0.46470794     0.17430
H1561       H  0.33702101  0.26636130  0.41742421     0.17430
F1562       F  0.31747604  0.23493977  0.46476949    -0.20330
C1563       C  0.20559896  0.24123512  0.45758282    -0.21760
C1564       C  0.23440038  0.22939230  0.46707811    -0.09800
C1565       C  0.24494904  0.20123720  0.45437872     0.29050
C1566       C  0.22869308  0.18720678  0.42985119    -0.21760
C1567       C  0.20188504  0.20130839  0.41749421    -0.09820
C1568       C  0.18924158  0.22722125  0.43319151     0.29060
F1569       F  0.16286703  0.24109621  0.42281136    -0.20340
H1570       H  0.19705023  0.26283748  0.46729914     0.17430
H1571       H  0.23901674  0.16728106  0.41842013     0.17430
F1572       F  0.27242559  0.18889784  0.46369598    -0.20330
C1573       C  0.24805035  0.20236533  0.54771935    -0.21760
C1574       C  0.23560468  0.22948112  0.53495996    -0.09800
C1575       C  0.20613657  0.23965487  0.54472156     0.29050
C1576       C  0.19121481  0.22502908  0.56969947    -0.21760
C1577       C  0.20564225  0.20020243  0.58525913    -0.09820
C1578       C  0.23319015  0.18759471  0.57243454     0.29060
F1579       F  0.24781303  0.16316311  0.58601317    -0.20340
H1580       H  0.27058031  0.19402854  0.54018337     0.17430
H1581       H  0.17012434  0.23527025  0.57887654     0.17430
F1582       F  0.19322687  0.26546875  0.53209420    -0.20330
C1583       C  0.26385382  0.29913257  0.54608041    -0.21760
C1584       C  0.27642095  0.27141598  0.53458260    -0.09800
C1585       C  0.30529092  0.26120843  0.54595878     0.29050
C1586       C  0.31928752  0.27640670  0.57124618    -0.21760
C1587       C  0.30450452  0.30182513  0.58559118    -0.09820
C1588       C  0.27781222  0.31444820  0.57116247     0.29060
F1589       F  0.26308197  0.33951359  0.58348819    -0.20340
H1590       H  0.24172950  0.30746900  0.53737201     0.17430
H1591       H  0.33979020  0.26613092  0.58165871     0.17430
F1592       F  0.31832803  0.23478650  0.53469385    -0.20330
C1593       C  0.45756883  0.23967005  0.80145809    -0.21760
C1594       C  0.46842383  0.22987578  0.77229993    -0.09800
C1595       C  0.45595576  0.20284496  0.75897367     0.29050
C1596       C  0.43069499  0.18795582  0.77293854    -0.21760
C1597       C  0.41702900  0.20008556  0.80016096    -0.09820
C1598       C  0.43218227  0.22484353  0.81548110     0.29060
F1599       F  0.42046353  0.23703867  0.84211334    -0.20340
H1600       H  0.46707539  0.26043910  0.81211158     0.17430
H1601       H  0.41990754  0.16876271  0.76065552     0.17430
F1602       F  0.46622115  0.19259298  0.73095970    -0.20330
C1603       C  0.45497313  0.29895894  0.74768370    -0.21760
C1604       C  0.46952848  0.27348986  0.73355337    -0.09800
C1605       C  0.46153109  0.26545523  0.70293333     0.29050
C1606       C  0.43671589  0.28034417  0.68817747    -0.21760
C1607       C  0.41942426  0.30324846  0.70385244    -0.09820
C1608       C  0.43023324  0.31399806  0.73293486     0.29060
F1609       F  0.41435713  0.33597365  0.74910466    -0.20340
H1610       H  0.46094546  0.30541034  0.77129186     0.17430
H1611       H  0.42897145  0.27164361  0.66582896     0.17430
F1612       F  0.47531879  0.24094962  0.68863563    -0.20330
C1613       C  0.57666361  0.31401585  0.73559256    -0.21760
C1614       C  0.58769363  0.30464108  0.70627065    -0.09800
C1615       C  0.57081831  0.28189279  0.68969241     0.29050
C1616       C  0.54615883  0.26613795  0.70384988    -0.21760
C1617       C  0.53769086  0.27301097  0.73454742    -0.09820
C1618       C  0.55202854  0.29814662  0.74975824     0.29060
F1619       F  0.54418091  0.30540572  0.77943946    -0.20340
H1620       H  0.58930182  0.33111953  0.74907735     0.17430
H1621       H  0.53546775  0.24685284  0.69176567     0.17430
F1622       F  0.58030136  0.27251570  0.66108501    -0.20330
C1623       C  0.54393789  0.23359537  0.80198340    -0.21760
C1624       C  0.53645070  0.22722354  0.77093230    -0.09800
C1625       C  0.55082919  0.20210572  0.75583549     0.29050
C1626       C  0.57508556  0.18610222  0.77038410    -0.21760
C1627       C  0.58575194  0.19552497  0.79983091    -0.09820
C1628       C  0.56839721  0.21783086  0.81646381     0.29060
F1629       F  0.57747048  0.22702944  0.84528255    -0.20340
H1630       H  0.53277651  0.25272033  0.81403400     0.17430
H1631       H  0.58799648  0.16911280  0.75695316     0.17430
F1632       F  0.54352270  0.19510745  0.72593782    -0.20330
C1633       C  0.45453436  0.76042023  0.20445719    -0.21760
C1634       C  0.46570324  0.77297260  0.23247179    -0.09800
C1635       C  0.45391564  0.80148481  0.24290036     0.29050
C1636       C  0.42895358  0.81537043  0.22738966    -0.21760
C1637       C  0.41485864  0.80067191  0.20163184    -0.09820
C1638       C  0.42941391  0.77420980  0.18893558     0.29060
F1639       F  0.41705687  0.75937142  0.16394889    -0.20340
H1640       H  0.46348209  0.73843779  0.19604555     0.17430
H1641       H  0.41849564  0.83587604  0.23764818     0.17430
F1642       F  0.46432200  0.81415844  0.26989550    -0.20330
C1643       C  0.45418322  0.74400856  0.30283992    -0.21760
C1644       C  0.46580549  0.73245355  0.27463062    -0.09800
C1645       C  0.45563137  0.70343600  0.26387810     0.29050
C1646       C  0.43155716  0.68802251  0.27921842    -0.21760
C1647       C  0.41665937  0.70173437  0.30501376    -0.09820
C1648       C  0.42986316  0.72871815  0.31814142     0.29060
F1649       F  0.41684370  0.74251165  0.34335696    -0.20340
H1650       H  0.46216924  0.76623320  0.31163414     0.17430
H1651       H  0.42221933  0.66708338  0.26871765     0.17430
F1652       F  0.46683460  0.69149880  0.23690090    -0.20330
C1653       C  0.54383804  0.70413263  0.26066833    -0.21760
C1654       C  0.53339865  0.73175848  0.27432773    -0.09800
C1655       C  0.54510234  0.74061464  0.30348816     0.29050
C1656       C  0.56996779  0.72425716  0.31669267    -0.21760
C1657       C  0.58347463  0.69904620  0.30077386    -0.09820
C1658       C  0.56845458  0.68762295  0.27385827     0.29060
F1659       F  0.57984888  0.66269223  0.25816229    -0.20340
H1660       H  0.53471217  0.69680884  0.23834404     0.17430
H1661       H  0.58075368  0.73348642  0.33751702     0.17430
F1662       F  0.53450271  0.76671747  0.31768843    -0.20330
C1663       C  0.54928862  0.80046433  0.24912991    -0.21760
C1664       C  0.53425855  0.77506713  0.23527475    -0.09800
C1665       C  0.54294308  0.76594024  0.20516836     0.29050
C1666       C  0.56849793  0.77989948  0.19064731    -0.21760
C1667       C  0.58585888  0.80307382  0.20598641    -0.09820
C1668       C  0.57478500  0.81451394  0.23468316     0.29060
F1669       F  0.59083208  0.83645266  0.25077328    -0.20340
H1670       H  0.54294825  0.80772765  0.27236981     0.17430
H1671       H  0.57643835  0.77054997  0.16866145     0.17430
F1672       F  0.52881175  0.74141066  0.19119871    -0.20330
C1673       C  0.45597960  0.26077006  0.30086739    -0.21760
C1674       C  0.46660775  0.27142826  0.27207908    -0.09800
C1675       C  0.45476920  0.29939862  0.26016321     0.29050
C1676       C  0.42996303  0.31434561  0.27500525    -0.21760
C1677       C  0.41633981  0.30123953  0.30159063    -0.09820
C1678       C  0.43115891  0.27560170  0.31570739     0.29060
F1679       F  0.41936677  0.26261410  0.34188953    -0.20340
H1680       H  0.46503516  0.23933785  0.31044576     0.17430
H1681       H  0.41916194  0.33397927  0.26357217     0.17430
F1682       F  0.46504827  0.31057111  0.23258990    -0.20330
C1683       C  0.45301077  0.20174689  0.24476608    -0.21760
C1684       C  0.46570182  0.22880976  0.23184634    -0.09800
C1685       C  0.45582963  0.23830843  0.20229107     0.29050
C1686       C  0.43107178  0.22306931  0.18763229    -0.21760
C1687       C  0.41563354  0.19825430  0.20232155    -0.09820
C1688       C  0.42832166  0.18633617  0.23006591     0.29060
F1689       F  0.41445177  0.16238662  0.24510666    -0.20340
H1690       H  0.46053358  0.19403993  0.26749121     0.17430
H1691       H  0.42197907  0.23269069  0.16624603     0.17430
F1692       F  0.46816008  0.26400622  0.18890606    -0.20330
C1693       C  0.54424660  0.24031756  0.20318084    -0.21760
C1694       C  0.53354728  0.22803815  0.23126521    -0.09800
C1695       C  0.54499294  0.19925977  0.24142748     0.29050
C1696       C  0.56988429  0.18516520  0.22585208    -0.21760
C1697       C  0.58366135  0.19980667  0.20011555    -0.09820
C1698       C  0.56887729  0.22622462  0.18744229     0.29060
F1699       F  0.58056055  0.24069012  0.16199296    -0.20340
H1700       H  0.53535966  0.26234601  0.19488268     0.17430
H1701       H  0.58049809  0.16476870  0.23605570     0.17430
F1702       F  0.53415383  0.18639288  0.26804296    -0.20330
C1703       C  0.54909355  0.25587530  0.29959543    -0.21760
C1704       C  0.53491515  0.26875874  0.27326285    -0.09800
C1705       C  0.54434637  0.29827157  0.26315417     0.29050
C1706       C  0.56973201  0.31308984  0.27722571    -0.21760
C1707       C  0.58629278  0.29859794  0.30143434    -0.09820
C1708       C  0.57448865  0.27060733  0.31372039     0.29060
F1709       F  0.58971441  0.25536881  0.33674750    -0.20340
H1710       H  0.54214165  0.23313463  0.30766667     0.17430
H1711       H  0.57822588  0.33450898  0.26721113     0.17430
F1712       F  0.53112974  0.31128913  0.23768134    -0.20330
loop_ 
_geom_bond_atom_site_label_1 
_geom_bond_atom_site_label_2 
_geom_bond_distance 
_geom_bond_site_symmetry_2 
_ccdc_geom_bond_type 
C1            C2   1.352       .  D
C1         C1694   1.483       .  S
C1         C1704   1.488       .  S
C2         C1674   1.484       .  S
C2         C1684   1.488       .  S
C3            C4   1.352       .  D
C3         C1654   1.484       .  S
C3         C1664   1.487       .  S
C4         C1634   1.486       .  S
C4         C1644   1.486       .  S
C5            C6   1.352       .  D
C5         C1617   1.489       .  S
C5         C1624   1.483       .  S
C6         C1594   1.488       .  S
C6         C1604   1.482       .  S
C7            C8   1.351       .  D
C7         C1574   1.485       .  S
C7         C1584   1.487       .  S
C8         C1554   1.484       .  S
C8         C1564   1.486       .  S
C9           C10   1.352   1_565  D
C9         C1537   1.484       .  S
C9         C1547   1.488       .  S
C10        C1514   1.488       .  S
C10        C1527   1.483       .  S
O11          C26   1.267       .  A
O11         Al19   1.914       .  S
C12          O22   1.259       .  A
C12          O13   1.258       .  A
C12          C71   1.460       .  S
O13         Al15   1.903       .  S
O14          C16   1.262       .  A
O14         Al15   1.900       .  S
Al15         O23   1.911       .  S
Al15         O25   1.898       .  S
Al15         O24   1.784       .  S
C16          O29   1.255       .  A
C16          C34   1.450       .  S
O17          C27   1.257       .  A
O17         Al19   1.891       .  S
O18          C31   1.263       .  A
O18         Al28   1.904       .  S
Al19         O32   1.903       .  S
Al19         O29   1.889       .  S
Al19         O24   1.793       .  S
O20          C27   1.261       .  A
O20         Al28   1.909       .  S
O21          C30   1.264       .  A
O21         Al28   1.907       .  S
O22         Al28   1.897       .  S
O23          C30   1.266       .  A
O24         Al28   1.785       .  S
O25          C26   1.263       .  A
C26        C1507   1.487       .  S
C27          C82   1.460       .  S
C30        C1597   1.490       .  S
C31          O32   1.262       .  A
C31        C1524   1.484       .  S
O33          C48   1.261       .  A
O33         Al41   1.896       .  S
C34          O44   1.261       .  A
C34          O35   1.256       .  A
O35         Al37   1.898       .  S
O36          C38   1.255       .  A
O36         Al37   1.878       .  S
Al37         O45   1.912       .  S
Al37         O47   1.910       .  S
Al37         O46   1.792       .  S
C38          O51   1.263       .  A
C38          C60   1.457       .  S
O39          C49   1.256       .  A
O39         Al41   1.885       .  S
O40          C53   1.265       .  A
O40         Al50   1.903       .  S
Al41         O54   1.915       .  S
Al41         O51   1.917       .  S
Al41         O46   1.785       .  S
O42          C49   1.260       .  A
O42         Al50   1.911       .  S
O43          C52   1.264       .  A
O43         Al50   1.901       .  S
O44         Al50   1.894       .  S
O45          C52   1.267       .  A
O46         Al50   1.779       .  S
O47          C48   1.263       .  A
C48        C1484   1.482       .  S
C49          C93   1.458       .  S
C52        C1474   1.486       .  S
C53          O54   1.266       .  A
C53        C1494   1.485       .  S
O55          C70   1.264       .  A
O55         Al63   1.904       .  S
C56          O66   1.255       .  A
C56          O57   1.262       .  A
C56          C78   1.448       .  S
O57         Al59   1.894       .  S
O58          C60   1.257       .  A
O58         Al59   1.906       .  S
Al59         O67   1.897       .  S
Al59         O69   1.911       .  S
Al59         O68   1.782       .  S
C60          O73   1.258       .  A
O61          C71   1.261       .  A
O61         Al63   1.912       .  S
O62          C75   1.263       .  A
O62         Al72   1.910       .  S
Al63         O76   1.894       .  S
Al63         O73   1.888       .  S
Al63         O68   1.783       .  S
O64          C71   1.255       .  A
O64         Al72   1.887       .  S
O65          C74   1.268       .  A
O65         Al72   1.917       .  S
O66         Al72   1.891       .  S
O67          C74   1.262       .  A
O68         Al72   1.793       .  S
O69          C70   1.267       .  A
C70        C1464   1.487       .  S
C74        C1587   1.488       .  S
C75          O76   1.261       .  A
C75        C1607   1.481       .  S
O77          C92   1.266       .  A
O77         Al85   1.917       .  S
C78          O88   1.253       .  A
C78          O79   1.262       .  A
O79         Al81   1.901       .  S
O80          C82   1.256       .  A
O80         Al81   1.898       .  S
Al81         O89   1.888       .  S
Al81         O91   1.901       .  S
Al81         O90   1.782       .  S
C82          O95   1.258       .  A
O83          C93   1.261       .  A
O83         Al85   1.906       .  S
O84          C97   1.259       .  A
O84         Al94   1.891       .  S
Al85         O98   1.914       .  S
Al85         O95   1.898       .  S
Al85         O90   1.791       .  S
O86          C93   1.258       .  A
O86         Al94   1.888       .  S
O87          C96   1.270       .  A
O87         Al94   1.921       .  S
O88         Al94   1.883       .  S
O89          C96   1.261       .  A
O90         Al94   1.792       .  S
O91          C92   1.265       .  A
C92        C1517   1.489       .  S
C96        C1577   1.487       .  S
C97          O98   1.265       .  A
C97        C1457   1.489       .  S
C99         C100   1.353   1_455  D
C99        C1454   1.487       .  S
C99        C1497   1.487       .  S
C100       C1434   1.488       .  S
C100       C1444   1.486       .  S
C101        C102   1.352       .  D
C101       C1467   1.485       .  S
C101       C1487   1.485       .  S
C102       C1414   1.485       .  S
C102       C1424   1.485       .  S
C103        C104   1.353       .  D
C103       C1394   1.487       .  S
C103       C1404   1.487       .  S
C104       C1374   1.486       .  S
C104       C1387   1.486       .  S
C105        C106   1.351   1_556  D
C105       C1357   1.487       .  S
C105       C1367   1.484       .  S
C106       C1337   1.484       .  S
C106       C1344   1.486       .  S
O107        C122   1.263       .  A
O107       Al115   1.896       .  S
C108        O118   1.262       .  A
C108        O109   1.257       .  A
C108        C134   1.460       .  S
O109       Al111   1.885       .  S
O110        C112   1.254       .  A
O110       Al111   1.888       .  S
Al111       O119   1.895       .  S
Al111       O121   1.914       .  S
Al111       O120   1.791       .  S
C112        O125   1.261       .  A
C112        C174   1.447       .  S
O113        C123   1.258       .  A
O113       Al115   1.906       .  S
O114        C127   1.266       .  A
O114       Al124   1.915       .  S
Al115       O128   1.902       .  S
Al115       O125   1.896       .  S
Al115       O120   1.782       .  S
O116        C123   1.258       .  A
O116       Al124   1.892       .  S
O117        C126   1.264       .  A
O117       Al124   1.907       .  S
O118       Al124   1.914       .  S
O119        C126   1.260       .  A
O120       Al124   1.787       .  S
O121        C122   1.267       .  A
C122       C1347   1.486       .  S
C123        C156   1.460       .  S
C126       C1324   1.484       .  S
C127        O128   1.265       .  A
C127       C1384   1.487       .  S
O129        C144   1.265       .  A
O129       Al137   1.903       .  S
C130        O140   1.256       .  A
C130        O131   1.262       .  A
C130        C178   1.460       .  S
O131       Al133   1.915       .  S
O132        C134   1.258       .  A
O132       Al133   1.891       .  S
Al133       O141   1.904       .  S
Al133       O143   1.915       .  S
Al133       O142   1.785       .  S
C134        O147   1.259       .  A
O135        C145   1.261       .  A
O135       Al137   1.894       .  S
O136        C149   1.267       .  A
O136       Al146   1.911       .  S
Al137       O150   1.900       .  S
Al137       O147   1.908       .  S
Al137       O142   1.782       .  S
O138        C145   1.255       .  A
O138       Al146   1.890       .  S
O139        C148   1.261       .  A
O139       Al146   1.901       .  S
O140       Al146   1.886       .  S
O141        C148   1.263       .  A
O142       Al146   1.790       .  S
O143        C144   1.266       .  A
C144       C1297   1.487       .  S
C145        C152   1.447       .  S
C148       C1317   1.483       .  S
C149        O150   1.263       .  A
C149       C1307   1.484       .  S
O151        C166   1.263       .  A
O151       Al159   1.905       .  S
C152        O162   1.261       .  A
C152        O153   1.255       .  A
O153       Al155   1.892       .  S
O154        C156   1.257       .  A
O154       Al155   1.885       .  S
Al155       O163   1.913       .  S
Al155       O165   1.901       .  S
Al155       O164   1.791       .  S
C156        O169   1.263       .  A
O157        C167   1.257       .  A
O157       Al159   1.891       .  S
O158        C171   1.265       .  A
O158       Al168   1.901       .  S
Al159       O172   1.919       .  S
Al159       O169   1.915       .  S
Al159       O164   1.787       .  S
O160        C167   1.259       .  A
O160       Al168   1.909       .  S
O161        C170   1.263       .  A
O161       Al168   1.901       .  S
O162       Al168   1.892       .  S
O163        C170   1.268       .  A
O164       Al168   1.782       .  S
O165        C166   1.262       .  A
C166       C1377   1.485       .  S
C167        C189   1.460       .  S
C170       C1284   1.486       .  S
C171        O172   1.266       .  A
C171       C1707   1.487       .  S
O173        C188   1.266       .  A
O173       Al181   1.918       .  S
C174        O184   1.254       .  A
C174        O175   1.261       .  A
O175       Al177   1.896       .  S
O176        C178   1.258       .  A
O176       Al177   1.905       .  S
Al177       O185   1.898       .  S
Al177       O187   1.902       .  S
Al177       O186   1.782       .  S
C178        O191   1.258       .  A
O179        C189   1.262       .  A
O179       Al181   1.914       .  S
O180        C193   1.260       .  A
O180       Al190   1.892       .  S
Al181       O194   1.910       .  S
Al181       O191   1.894       .  S
Al181       O186   1.788       .  S
O182        C189   1.257       .  A
O182       Al190   1.886       .  S
O183        C192   1.267       .  A
O183       Al190   1.914       .  S
O184       Al190   1.887       .  S
O185        C192   1.263       .  A
O186       Al190   1.791       .  S
O187        C188   1.265       .  A
C188       C1274   1.489       .  S
C192       C1334   1.486       .  S
C193        O194   1.265       .  A
C193       C1697   1.484       .  S
C195        C196   1.352   1_545  D
C195       C1277   1.488       .  S
C195       C1314   1.483       .  S
C196       C1254   1.489       .  S
C196       C1264   1.484       .  S
C197        C198   1.352       .  D
C197       C1287   1.487       .  S
C197       C1304   1.485       .  S
C198       C1234   1.485       .  S
C198       C1244   1.486       .  S
C199        C200   1.353   1_556  D
C199       C1217   1.486       .  S
C199       C1224   1.486       .  S
C200       C1197   1.486       .  S
C200       C1204   1.486       .  S
O201        C216   1.265       .  A
O201       Al209   1.908       .  S
C202        O212   1.256       .  A
C202        O203   1.261       .  A
C202        C272   1.449       .  S
O203       Al205   1.894       .  S
O204        C206   1.258       .  A
O204       Al205   1.908       .  S
Al205       O213   1.899       .  S
Al205       O215   1.907       .  S
Al205       O214   1.782       .  S
C206        O219   1.258       .  A
C206        C246   1.458       .  S
O207        C217   1.262       .  A
O207       Al209   1.915       .  S
O208        C221   1.263       .  A
O208       Al218   1.910       .  S
Al209       O222   1.897       .  S
Al209       O219   1.889       .  S
Al209       O214   1.784       .  S
O210        C217   1.256       .  A
O210       Al218   1.883       .  S
O211        C220   1.268       .  A
O211       Al218   1.914       .  S
O212       Al218   1.894       .  S
O213        C220   1.262       .  A
O214       Al218   1.792       .  S
O215        C216   1.266       .  A
C216       C1207   1.486       .  S
C217        C239   1.459       .  S
C220       C1397   1.486       .  S
C221        O222   1.262       .  A
C221       C1184   1.482       .  S
O223        C238   1.263       .  A
O223       Al231   1.902       .  S
C224        O234   1.261       .  A
C224        O225   1.254       .  A
C224        C261   1.450       .  S
O225       Al227   1.888       .  S
O226        C228   1.256       .  A
O226       Al227   1.890       .  S
Al227       O235   1.912       .  S
Al227       O237   1.905       .  S
Al227       O236   1.792       .  S
C228        O241   1.260       .  A
C228        C283   1.459       .  S
O229        C239   1.259       .  A
O229       Al231   1.893       .  S
O230        C243   1.268       .  A
O230       Al240   1.916       .  S
Al231       O244   1.898       .  S
Al231       O241   1.907       .  S
Al231       O236   1.786       .  S
O232        C239   1.258       .  A
O232       Al240   1.906       .  S
O233        C242   1.264       .  A
O233       Al240   1.904       .  S
O234       Al240   1.899       .  S
O235        C242   1.267       .  A
O236       Al240   1.786       .  S
O237        C238   1.263       .  A
C238       C1174   1.485       .  S
C242       C1257   1.488       .  S
C243        O244   1.262       .  A
C243       C1164   1.490       .  S
O245        C260   1.264       .  A
O245       Al253   1.900       .  S
C246        O256   1.256       .  A
C246        O247   1.263       .  A
O247       Al249   1.915       .  S
O248        C250   1.257       .  A
O248       Al249   1.890       .  S
Al249       O257   1.904       .  S
Al249       O259   1.920       .  S
Al249       O258   1.787       .  S
C250        O263   1.259       .  A
C250        C268   1.459       .  S
O251        C261   1.261       .  A
O251       Al253   1.895       .  S
O252        C265   1.268       .  A
O252       Al262   1.913       .  S
Al253       O266   1.898       .  S
Al253       O263   1.908       .  S
Al253       O258   1.780       .  S
O254        C261   1.255       .  A
O254       Al262   1.895       .  S
O255        C264   1.261       .  A
O255       Al262   1.903       .  S
O256       Al262   1.881       .  S
O257        C264   1.263       .  A
O258       Al262   1.791       .  S
O259        C260   1.266       .  A
C260       C1667   1.487       .  S
C264       C1194   1.483       .  S
C265        O266   1.263       .  A
C265       C1267   1.484       .  S
O267        C282   1.264       .  A
O267       Al275   1.900       .  S
C268        O278   1.261       .  A
C268        O269   1.257       .  A
O269       Al271   1.888       .  S
O270        C272   1.253       .  A
O270       Al271   1.886       .  S
Al271       O279   1.895       .  S
Al271       O281   1.912       .  S
Al271       O280   1.791       .  S
C272        O285   1.261       .  A
O273        C283   1.259       .  A
O273       Al275   1.903       .  S
O274        C287   1.264       .  A
O274       Al284   1.911       .  S
Al275       O288   1.908       .  S
Al275       O285   1.900       .  S
Al275       O280   1.783       .  S
O276        C283   1.258       .  A
O276       Al284   1.893       .  S
O277        C286   1.264       .  A
O277       Al284   1.908       .  S
O278       Al284   1.911       .  S
O279        C286   1.260       .  A
O280       Al284   1.788       .  S
O281        C282   1.267       .  A
C282       C1407   1.486       .  S
C286       C1657   1.484       .  S
C287        O288   1.266       .  A
C287       C1154   1.489       .  S
C289        C290   1.354       .  D
C289       C1157   1.489       .  S
C289       C1177   1.484       .  S
C290       C1134   1.485       .  S
C290       C1144   1.489       .  S
C291        C292   1.353   1_565  D
C291       C1114   1.488       .  S
C291       C1124   1.486       .  S
C292       C1097   1.487       .  S
C292       C1107   1.486       .  S
O293        C308   1.263       .  A
O293       Al301   1.903       .  S
C294        O304   1.261       .  A
C294        O295   1.254       .  A
C294        C331   1.453       .  S
O295       Al297   1.890       .  S
O296        C298   1.259       .  A
O296       Al297   1.891       .  S
Al297       O305   1.917       .  S
Al297       O307   1.896       .  S
Al297       O306   1.792       .  S
C298        O311   1.256       .  A
C298        C364   1.454       .  S
O299        C309   1.254       .  A
O299       Al301   1.881       .  S
O300        C313   1.264       .  A
O300       Al310   1.906       .  S
Al301       O314   1.899       .  S
Al301       O311   1.896       .  S
Al301       O306   1.794       .  S
O302        C309   1.259       .  A
O302       Al310   1.906       .  S
O303        C312   1.262       .  A
O303       Al310   1.894       .  S
O304       Al310   1.898       .  S
O305        C312   1.268       .  A
O306       Al310   1.787       .  S
O307        C308   1.261       .  A
C308       C1627   1.479       .  S
C309        C338   1.455       .  S
C312       C1354   1.488       .  S
C313        O314   1.261       .  A
C313       C1104   1.484       .  S
O315        C330   1.267       .  A
O315       Al323   1.910       .  S
C316        O326   1.255       .  A
C316        O317   1.261       .  A
C316        C353   1.460       .  S
O317       Al319   1.911       .  S
O318        C320   1.261       .  A
O318       Al319   1.901       .  S
Al319       O327   1.910       .  S
Al319       O329   1.906       .  S
Al319       O328   1.790       .  S
C320        O333   1.252       .  A
C320        C375   1.453       .  S
O321        C331   1.259       .  A
O321       Al323   1.892       .  S
O322        C335   1.265       .  A
O322       Al332   1.913       .  S
Al323       O336   1.884       .  S
Al323       O333   1.883       .  S
Al323       O328   1.790       .  S
O324        C331   1.256       .  A
O324       Al332   1.894       .  S
O325        C334   1.261       .  A
O325       Al332   1.898       .  S
O326       Al332   1.883       .  S
O327        C334   1.265       .  A
O328       Al332   1.797       .  S
O329        C330   1.264       .  A
C330       C1084   1.487       .  S
C334       C1437   1.487       .  S
C335        O336   1.259       .  A
C335       C1364   1.484       .  S
O337        C352   1.265       .  A
O337       Al345   1.912       .  S
C338        O348   1.259       .  A
C338        O339   1.258       .  A
O339       Al341   1.888       .  S
O340        C342   1.259       .  A
O340       Al341   1.906       .  S
Al341       O349   1.906       .  S
Al341       O351   1.903       .  S
Al341       O350   1.785       .  S
C342        O355   1.259       .  A
C342        C360   1.458       .  S
O343        C353   1.260       .  A
O343       Al345   1.909       .  S
O344        C357   1.264       .  A
O344       Al354   1.905       .  S
Al345       O358   1.908       .  S
Al345       O355   1.892       .  S
Al345       O350   1.785       .  S
O346        C353   1.259       .  A
O346       Al354   1.893       .  S
O347        C356   1.266       .  A
O347       Al354   1.910       .  S
O348       Al354   1.904       .  S
O349        C356   1.263       .  A
O350       Al354   1.784       .  S
O351        C352   1.265       .  A
C352       C1247   1.487       .  S
C356       C1094   1.488       .  S
C357        O358   1.266       .  A
C357       C1447   1.487       .  S
O359        C374   1.267       .  A
O359       Al367   1.911       .  S
C360        O370   1.254       .  A
C360        O361   1.261       .  A
O361       Al363   1.914       .  S
O362        C364   1.260       .  A
O362       Al363   1.896       .  S
Al363       O371   1.903       .  S
Al363       O373   1.901       .  S
Al363       O372   1.787       .  S
C364        O377   1.254       .  A
O365        C375   1.259       .  A
O365       Al367   1.885       .  S
O366        C379   1.263       .  A
O366       Al376   1.905       .  S
Al367       O380   1.895       .  S
Al367       O377   1.892       .  S
Al367       O372   1.791       .  S
O368        C375   1.257       .  A
O368       Al376   1.899       .  S
O369        C378   1.262       .  A
O369       Al376   1.902       .  S
O370       Al376   1.878       .  S
O371        C378   1.263       .  A
O372       Al376   1.795       .  S
O373        C374   1.263       .  A
C374       C1614   1.484       .  S
C378       C1237   1.484       .  S
C379        O380   1.261       .  A
C379       C1074   1.480       .  S
C381        C382   1.353       .  D
C381       C1054   1.490       .  S
C381       C1064   1.482       .  S
C382       C1077   1.483       .  S
C382       C1087   1.490       .  S
O383        C398   1.264       .  A
O383       Al391   1.902       .  S
C384        O394   1.254       .  A
C384        O385   1.262       .  A
C384        C421   1.451       .  S
O385       Al387   1.901       .  S
O386        C388   1.258       .  A
O386       Al387   1.903       .  S
Al387       O395   1.899       .  S
Al387       O397   1.911       .  S
Al387       O396   1.784       .  S
C388        O401   1.258       .  A
C388        C443   1.459       .  S
O389        C399   1.261       .  A
O389       Al391   1.908       .  S
O390        C403   1.262       .  A
O390       Al400   1.898       .  S
Al391       O404   1.904       .  S
Al391       O401   1.893       .  S
Al391       O396   1.788       .  S
O392        C399   1.257       .  A
O392       Al400   1.888       .  S
O393        C402   1.267       .  A
O393       Al400   1.912       .  S
O394       Al400   1.889       .  S
O395        C402   1.263       .  A
O396       Al400   1.790       .  S
O397        C398   1.266       .  A
C398       C1214   1.488       .  S
C399        C454   1.459       .  S
C402       C1044   1.487       .  S
C403        O404   1.262       .  A
C403       C1067   1.484       .  S
O405        C420   1.261       .  A
O405       Al413   1.901       .  S
C406        O416   1.258       .  A
C406        O407   1.258       .  A
C406        C450   1.459       .  S
O407       Al409   1.891       .  S
O408        C410   1.262       .  A
O408       Al409   1.912       .  S
Al409       O417   1.911       .  S
Al409       O419   1.905       .  S
Al409       O418   1.787       .  S
C410        O423   1.256       .  A
C410        C428   1.458       .  S
O411        C421   1.255       .  A
O411       Al413   1.893       .  S
O412        C425   1.263       .  A
O412       Al422   1.896       .  S
Al413       O426   1.912       .  S
Al413       O423   1.882       .  S
Al413       O418   1.793       .  S
O414        C421   1.262       .  A
O414       Al422   1.898       .  S
O415        C424   1.266       .  A
O415       Al422   1.906       .  S
O416       Al422   1.905       .  S
O417        C424   1.265       .  A
O418       Al422   1.783       .  S
O419        C420   1.263       .  A
C420       C1127   1.483       .  S
C424       C1147   1.489       .  S
C425        O426   1.267       .  A
C425       C1034   1.485       .  S
O427        C442   1.267       .  A
O427       Al435   1.911       .  S
C428        O438   1.258       .  A
C428        O429   1.258       .  A
O429       Al431   1.906       .  S
O430        C432   1.261       .  A
O430       Al431   1.898       .  S
Al431       O439   1.912       .  S
Al431       O441   1.902       .  S
Al431       O440   1.785       .  S
C432        O445   1.255       .  A
C432        C465   1.450       .  S
O433        C443   1.256       .  A
O433       Al435   1.888       .  S
O434        C447   1.262       .  A
O434       Al444   1.900       .  S
Al435       O448   1.907       .  S
Al435       O445   1.891       .  S
Al435       O440   1.791       .  S
O436        C443   1.261       .  A
O436       Al444   1.909       .  S
O437        C446   1.264       .  A
O437       Al444   1.903       .  S
O438       Al444   1.890       .  S
O439        C446   1.267       .  A
O440       Al444   1.785       .  S
O441        C442   1.263       .  A
C442       C1024   1.486       .  S
C446       C1117   1.489       .  S
C447        O448   1.263       .  A
C447       C1227   1.483       .  S
O449        C464   1.265       .  A
O449       Al457   1.901       .  S
C450        O460   1.256       .  A
C450        O451   1.263       .  A
O451       Al453   1.916       .  S
O452        C454   1.257       .  A
O452       Al453   1.890       .  S
Al453       O461   1.902       .  S
Al453       O463   1.919       .  S
Al453       O462   1.788       .  S
C454        O467   1.259       .  A
O455        C465   1.261       .  A
O455       Al457   1.894       .  S
O456        C469   1.267       .  A
O456       Al466   1.913       .  S
Al457       O470   1.902       .  S
Al457       O467   1.909       .  S
Al457       O462   1.780       .  S
O458        C465   1.256       .  A
O458       Al466   1.895       .  S
O459        C468   1.263       .  A
O459       Al466   1.907       .  S
O460       Al466   1.882       .  S
O461        C468   1.263       .  A
O462       Al466   1.792       .  S
O463        C464   1.266       .  A
C464       C1057   1.486       .  S
C468       C1137   1.485       .  S
C469        O470   1.264       .  A
C469       C1014   1.486       .  S
C471        C472   1.353       .  D
C471       C1017   1.487       .  S
C471       C1027   1.487       .  S
C472        C994   1.487       .  S
C472       C1004   1.488       .  S
O473        C488   1.265       .  A
O473       Al481   1.907       .  S
C474        O484   1.257       .  A
C474        O475   1.261       .  A
C474        C544   1.458       .  S
O475       Al477   1.909       .  S
O476        C478   1.258       .  A
O476       Al477   1.894       .  S
Al477       O485   1.905       .  S
Al477       O487   1.910       .  S
Al477       O486   1.788       .  S
C478        O491   1.258       .  A
C478        C522   1.459       .  S
O479        C489   1.262       .  A
O479       Al481   1.902       .  S
O480        C493   1.268       .  A
O480       Al490   1.912       .  S
Al481       O494   1.897       .  S
Al481       O491   1.903       .  S
Al481       O486   1.782       .  S
O482        C489   1.254       .  A
O482       Al490   1.891       .  S
O483        C492   1.261       .  A
O483       Al490   1.899       .  S
O484       Al490   1.886       .  S
O485        C492   1.263       .  A
O486       Al490   1.791       .  S
O487        C488   1.265       .  A
C488        C974   1.489       .  S
C489        C500   1.452       .  S
C492       C1427   1.484       .  S
C493        O494   1.263       .  A
C493        C984   1.484       .  S
O495        C510   1.266       .  A
O495       Al503   1.907       .  S
C496        O506   1.258       .  A
C496        O497   1.259       .  A
C496        C555   1.460       .  S
O497       Al499   1.911       .  S
O498        C500   1.262       .  A
O498       Al499   1.897       .  S
Al499       O507   1.911       .  S
Al499       O509   1.905       .  S
Al499       O508   1.783       .  S
C500        O513   1.256       .  A
O501        C511   1.255       .  A
O501       Al503   1.880       .  S
O502        C515   1.262       .  A
O502       Al512   1.898       .  S
Al503       O516   1.910       .  S
Al503       O513   1.896       .  S
Al503       O508   1.791       .  S
O504        C511   1.262       .  A
O504       Al512   1.912       .  S
O505        C514   1.264       .  A
O505       Al512   1.905       .  S
O506       Al512   1.889       .  S
O507        C514   1.266       .  A
O508       Al512   1.783       .  S
O509        C510   1.264       .  A
C510        C964   1.484       .  S
C511        C518   1.456       .  S
C514        C954   1.488       .  S
C515        O516   1.263       .  A
C515       C1534   1.482       .  S
O517        C532   1.264       .  A
O517       Al525   1.913       .  S
C518        O528   1.257       .  A
C518        O519   1.259       .  A
O519       Al521   1.892       .  S
O520        C522   1.260       .  A
O520       Al521   1.907       .  S
Al521       O529   1.899       .  S
Al521       O531   1.897       .  S
Al521       O530   1.784       .  S
C522        O535   1.257       .  A
O523        C533   1.255       .  A
O523       Al525   1.891       .  S
O524        C537   1.262       .  A
O524       Al534   1.895       .  S
Al525       O538   1.917       .  S
Al525       O535   1.892       .  S
Al525       O530   1.793       .  S
O526        C533   1.262       .  A
O526       Al534   1.898       .  S
O527        C536   1.268       .  A
O527       Al534   1.917       .  S
O528       Al534   1.901       .  S
O529        C536   1.262       .  A
O530       Al534   1.785       .  S
O531        C532   1.262       .  A
C532        C944   1.484       .  S
C533        C540   1.451       .  S
C536       C1544   1.490       .  S
C537        O538   1.269       .  A
C537       C1007   1.489       .  S
O539        C554   1.265       .  A
O539       Al547   1.913       .  S
C540        O550   1.256       .  A
C540        O541   1.261       .  A
O541       Al543   1.895       .  S
O542        C544   1.259       .  A
O542       Al543   1.908       .  S
Al543       O551   1.897       .  S
Al543       O553   1.902       .  S
Al543       O552   1.781       .  S
C544        O557   1.257       .  A
O545        C555   1.262       .  A
O545       Al547   1.915       .  S
O546        C559   1.263       .  A
O546       Al556   1.908       .  S
Al547       O560   1.898       .  S
Al547       O557   1.887       .  S
Al547       O552   1.787       .  S
O548        C555   1.257       .  A
O548       Al556   1.883       .  S
O549        C558   1.268       .  A
O549       Al556   1.916       .  S
O550       Al556   1.895       .  S
O551        C558   1.263       .  A
O552       Al556   1.791       .  S
O553        C554   1.264       .  A
C554       C1417   1.485       .  S
C558        C997   1.487       .  S
C559        O560   1.262       .  A
C559        C934   1.482       .  S
C561        C562   1.350   1_655  D
C561       C1037   1.484       .  S
C561       C1047   1.485       .  S
C562        C967   1.485       .  S
C562        C987   1.484       .  S
C563        C564   1.352       .  D
C563        C917   1.486       .  S
C563        C924   1.486       .  S
C564        C937   1.486       .  S
C564        C957   1.485       .  S
C565        C566   1.352   1_655  D
C565       C1167   1.487       .  S
C565       C1187   1.484       .  S
C566        C894   1.487       .  S
C566        C904   1.484       .  S
O567        C582   1.263       .  A
O567       Al575   1.901       .  S
C568        O578   1.260       .  A
C568        O569   1.256       .  A
C568        C649   1.453       .  S
O569       Al571   1.894       .  S
O570        C572   1.255       .  A
O570       Al571   1.884       .  S
Al571       O579   1.914       .  S
Al571       O581   1.903       .  S
Al571       O580   1.797       .  S
C572        O585   1.258       .  A
C572        C605   1.457       .  S
O573        C583   1.260       .  A
O573       Al575   1.899       .  S
O574        C587   1.268       .  A
O574       Al584   1.918       .  S
Al575       O588   1.892       .  S
Al575       O585   1.904       .  S
Al575       O580   1.789       .  S
O576        C583   1.253       .  A
O576       Al584   1.886       .  S
O577        C586   1.259       .  A
O577       Al584   1.886       .  S
O578       Al584   1.891       .  S
O579        C586   1.265       .  A
O580       Al584   1.791       .  S
O581        C582   1.262       .  A
C582        C874   1.484       .  S
C583        C612   1.453       .  S
C586        C884   1.484       .  S
C587        O588   1.262       .  A
C587       C1637   1.487       .  S
O589        C604   1.265       .  A
O589       Al597   1.914       .  S
C590        O600   1.261       .  A
C590        O591   1.259       .  A
C590        C638   1.458       .  S
O591       Al593   1.889       .  S
O592        C594   1.260       .  A
O592       Al593   1.911       .  S
Al593       O601   1.913       .  S
Al593       O603   1.903       .  S
Al593       O602   1.784       .  S
C594        O607   1.259       .  A
C594        C616   1.459       .  S
O595        C605   1.261       .  A
O595       Al597   1.911       .  S
O596        C609   1.264       .  A
O596       Al606   1.910       .  S
Al597       O610   1.906       .  S
Al597       O607   1.890       .  S
Al597       O602   1.784       .  S
O598        C605   1.258       .  A
O598       Al606   1.888       .  S
O599        C608   1.265       .  A
O599       Al606   1.903       .  S
O600       Al606   1.912       .  S
O601        C608   1.264       .  A
O602       Al606   1.783       .  S
O603        C604   1.265       .  A
C604        C927   1.487       .  S
C608        C907   1.485       .  S
C609        O610   1.265       .  A
C609        C864   1.487       .  S
O611        C626   1.263       .  A
O611       Al619   1.902       .  S
C612        O622   1.259       .  A
C612        O613   1.256       .  A
O613       Al615   1.895       .  S
O614        C616   1.255       .  A
O614       Al615   1.883       .  S
Al615       O623   1.913       .  S
Al615       O625   1.902       .  S
Al615       O624   1.797       .  S
C616        O629   1.259       .  A
O617        C627   1.260       .  A
O617       Al619   1.897       .  S
O618        C631   1.268       .  A
O618       Al628   1.915       .  S
Al619       O632   1.898       .  S
Al619       O629   1.909       .  S
Al619       O624   1.789       .  S
O620        C627   1.253       .  A
O620       Al628   1.885       .  S
O621        C630   1.259       .  A
O621       Al628   1.887       .  S
O622       Al628   1.889       .  S
O623        C630   1.265       .  A
O624       Al628   1.791       .  S
O625        C626   1.262       .  A
C626        C914   1.485       .  S
C627        C634   1.451       .  S
C630       C1647   1.485       .  S
C631        O632   1.263       .  A
C631        C854   1.487       .  S
O633        C648   1.264       .  A
O633       Al641   1.907       .  S
C634        O644   1.259       .  A
C634        O635   1.256       .  A
O635       Al637   1.895       .  S
O636        C638   1.255       .  A
O636       Al637   1.882       .  S
Al637       O645   1.913       .  S
Al637       O647   1.898       .  S
Al637       O646   1.796       .  S
C638        O651   1.260       .  A
O639        C649   1.261       .  A
O639       Al641   1.899       .  S
O640        C653   1.267       .  A
O640       Al650   1.911       .  S
Al641       O654   1.902       .  S
Al641       O651   1.910       .  S
Al641       O646   1.789       .  S
O642        C649   1.253       .  A
O642       Al650   1.886       .  S
O643        C652   1.259       .  A
O643       Al650   1.885       .  S
O644       Al650   1.887       .  S
O645        C652   1.265       .  A
O646       Al650   1.790       .  S
O647        C648   1.261       .  A
C648        C897   1.486       .  S
C652        C837   1.483       .  S
C653        O654   1.263       .  A
C653        C847   1.486       .  S
C655        C656   1.352   1_556  D
C655        C947   1.485       .  S
C655        C977   1.486       .  S
C656        C844   1.487       .  S
C656        C887   1.486       .  S
C657        C658   1.352       .  D
C657        C834   1.483       .  S
C657        C857   1.489       .  S
C658        C814   1.490       .  S
C658        C824   1.482       .  S
C659        C660   1.352   1_556  D
C659       C1477   1.486       .  S
C659       C1504   1.486       .  S
C660        C794   1.486       .  S
C660        C807   1.486       .  S
C661        C662   1.352   1_565  D
C661        C867   1.486       .  S
C661        C877   1.486       .  S
C662        C777   1.485       .  S
C662        C784   1.486       .  S
O663        C678   1.266       .  A
O663       Al671   1.907       .  S
C664        O674   1.257       .  A
C664        O665   1.261       .  A
C664        C712   1.457       .  S
O665       Al667   1.907       .  S
O666        C668   1.258       .  A
O666       Al667   1.895       .  S
Al667       O675   1.903       .  S
Al667       O677   1.904       .  S
Al667       O676   1.785       .  S
C668        O681   1.259       .  A
C668        C701   1.460       .  S
O669        C679   1.262       .  A
O669       Al671   1.898       .  S
O670        C683   1.267       .  A
O670       Al680   1.911       .  S
Al671       O684   1.897       .  S
Al671       O681   1.906       .  S
Al671       O676   1.781       .  S
O672        C679   1.255       .  A
O672       Al680   1.890       .  S
O673        C682   1.262       .  A
O673       Al680   1.900       .  S
O674       Al680   1.887       .  S
O675        C682   1.262       .  A
O676       Al680   1.790       .  S
O677        C678   1.263       .  A
C678       C1557   1.485       .  S
C679        C734   1.450       .  S
C682        C827   1.484       .  S
C683        O684   1.262       .  A
C683       C1677   1.483       .  S
O685        C700   1.265       .  A
O685       Al693   1.911       .  S
C686        O696   1.255       .  A
C686        O687   1.261       .  A
C686        C708   1.449       .  S
O687       Al689   1.896       .  S
O688        C690   1.258       .  A
O688       Al689   1.904       .  S
Al689       O697   1.894       .  S
Al689       O699   1.905       .  S
Al689       O698   1.783       .  S
C690        O703   1.258       .  A
C690        C745   1.457       .  S
O691        C701   1.262       .  A
O691       Al693   1.911       .  S
O692        C705   1.262       .  A
O692       Al702   1.903       .  S
Al693       O706   1.904       .  S
Al693       O703   1.890       .  S
Al693       O698   1.784       .  S
O694        C701   1.257       .  A
O694       Al702   1.890       .  S
O695        C704   1.268       .  A
O695       Al702   1.916       .  S
O696       Al702   1.891       .  S
O697        C704   1.263       .  A
O698       Al702   1.791       .  S
O699        C700   1.265       .  A
C700        C774   1.486       .  S
C704        C764   1.487       .  S
C705        O706   1.264       .  A
C705       C1567   1.485       .  S
O707        C722   1.267       .  A
O707       Al715   1.924       .  S
C708        O718   1.256       .  A
C708        O709   1.261       .  A
O709       Al711   1.893       .  S
O710        C712   1.258       .  A
O710       Al711   1.905       .  S
Al711       O719   1.890       .  S
Al711       O721   1.898       .  S
Al711       O720   1.779       .  S
C712        O725   1.257       .  A
O713        C723   1.263       .  A
O713       Al715   1.919       .  S
O714        C727   1.263       .  A
O714       Al724   1.910       .  S
Al715       O728   1.900       .  S
Al715       O725   1.889       .  S
Al715       O720   1.789       .  S
O716        C723   1.257       .  A
O716       Al724   1.882       .  S
O717        C726   1.269       .  A
O717       Al724   1.922       .  S
O718       Al724   1.895       .  S
O719        C726   1.262       .  A
O720       Al724   1.793       .  S
O721        C722   1.264       .  A
C722        C817   1.486       .  S
C723        C730   1.462       .  S
C726        C754   1.489       .  S
C727        O728   1.262       .  A
C727        C804   1.486       .  S
O729        C744   1.267       .  A
O729       Al737   1.909       .  S
C730        O740   1.258       .  A
C730        O731   1.259       .  A
O731       Al733   1.914       .  S
O732        C734   1.262       .  A
O732       Al733   1.896       .  S
Al733       O741   1.906       .  S
Al733       O743   1.906       .  S
Al733       O742   1.784       .  S
C734        O747   1.256       .  A
O735        C745   1.256       .  A
O735       Al737   1.880       .  S
O736        C749   1.262       .  A
O736       Al746   1.902       .  S
Al737       O750   1.906       .  S
Al737       O747   1.894       .  S
Al737       O742   1.791       .  S
O738        C745   1.262       .  A
O738       Al746   1.914       .  S
O739        C748   1.265       .  A
O739       Al746   1.910       .  S
O740       Al746   1.889       .  S
O741        C748   1.266       .  A
O742       Al746   1.785       .  S
O743        C744   1.264       .  A
C744       C1687   1.485       .  S
C748        C797   1.487       .  S
C749        O750   1.262       .  A
C749        C787   1.484       .  S
C751        C752   1.352   1_455  D
C751        C757   1.487       .  S
C751        C767   1.484       .  S
C752       C1294   1.487       .  S
C752       C1327   1.484       .  S
C753        C754   1.411       .  A
C753        C758   1.396       .  A
C753        H760   1.084       .  S
C754        C755   1.410       .  A
C755        C756   1.405       .  A
C755        F762   1.357       .  S
C756        C757   1.405       .  A
C756        H761   1.083       .  S
C757        C758   1.400       .  A
C758        F759   1.358       .  S
C763        C764   1.410       .  A
C763        C768   1.396       .  A
C763        H770   1.085       .  S
C764        C765   1.409       .  A
C765        C766   1.403       .  A
C765        F772   1.357       .  S
C766        C767   1.404       .  A
C766        H771   1.084       .  S
C767        C768   1.401       .  A
C768        F769   1.357       .  S
C773        C774   1.408       .  A
C773        C778   1.401       .  A
C773        H780   1.083       .  S
C774        C775   1.412       .  A
C775        C776   1.398       .  A
C775        F782   1.358       .  S
C776        C777   1.401       .  A
C776        H781   1.084       .  S
C777        C778   1.403       .  A
C778        F779   1.357       .  S
C783        C784   1.402       .  A
C783        C788   1.400       .  A
C783        H790   1.082       .  S
C784        C785   1.403       .  A
C785        C786   1.399       .  A
C785        F792   1.357       .  S
C786        C787   1.409       .  A
C786        H791   1.083       .  S
C787        C788   1.411       .  A
C788        F789   1.357       .  S
C793        C794   1.400       .  A
C793        C798   1.399       .  A
C793        H800   1.083       .  S
C794        C795   1.403       .  A
C795        C796   1.401       .  A
C795        F802   1.357       .  S
C796        C797   1.408       .  A
C796        H801   1.083       .  S
C797        C798   1.412       .  A
C798        F799   1.358       .  S
C803        C804   1.408       .  A
C803        C808   1.399       .  A
C803        H810   1.083       .  S
C804        C805   1.412       .  A
C805        C806   1.401       .  A
C805        F812   1.357       .  S
C806        C807   1.401       .  A
C806        H811   1.083       .  S
C807        C808   1.403       .  A
C808        F809   1.357       .  S
C813        C814   1.401       .  A
C813        C818   1.399       .  A
C813        H820   1.082       .  S
C814        C815   1.405       .  A
C815        C816   1.402       .  A
C815        F822   1.356       .  S
C816        C817   1.407       .  A
C816        H821   1.083       .  S
C817        C818   1.412       .  A
C818        F819   1.358       .  S
C823        C824   1.402       .  A
C823        C828   1.400       .  A
C823        H830   1.084       .  S
C824        C825   1.401       .  A
C825        C826   1.396       .  A
C825        F832   1.357       .  S
C826        C827   1.409       .  A
C826        H831   1.084       .  S
C827        C828   1.410       .  A
C828        F829   1.357       .  S
C833        C834   1.399       .  A
C833        C838   1.396       .  A
C833        H840   1.083       .  S
C834        C835   1.405       .  A
C835        C836   1.402       .  A
C835        F842   1.357       .  S
C836        C837   1.407       .  A
C836        H841   1.083       .  S
C837        C838   1.412       .  A
C838        F839   1.358       .  S
C843        C844   1.403       .  A
C843        C848   1.402       .  A
C843        H850   1.084       .  S
C844        C845   1.402       .  A
C845        C846   1.400       .  A
C845        F852   1.357       .  S
C846        C847   1.409       .  A
C846        H851   1.084       .  S
C847        C848   1.410       .  A
C848        F849   1.357       .  S
C853        C854   1.410       .  A
C853        C858   1.399       .  A
C853        H860   1.083       .  S
C854        C855   1.410       .  A
C855        C856   1.403       .  A
C855        F862   1.357       .  S
C856        C857   1.404       .  A
C856        H861   1.083       .  S
C857        C858   1.402       .  A
C858        F859   1.357       .  S
C863        C864   1.409       .  A
C863        C868   1.398       .  A
C863        H870   1.083       .  S
C864        C865   1.411       .  A
C865        C866   1.402       .  A
C865        F872   1.357       .  S
C866        C867   1.402       .  A
C866        H871   1.083       .  S
C867        C868   1.402       .  A
C868        F869   1.357       .  S
C873        C874   1.409       .  A
C873        C878   1.400       .  A
C873        H880   1.082       .  S
C874        C875   1.410       .  A
C875        C876   1.399       .  A
C875        F882   1.357       .  S
C876        C877   1.402       .  A
C876        H881   1.082       .  S
C877        C878   1.403       .  A
C878        F879   1.357       .  S
C883        C884   1.406       .  A
C883        C888   1.402       .  A
C883        H890   1.083       .  S
C884        C885   1.413       .  A
C885        C886   1.398       .  A
C885        F892   1.358       .  S
C886        C887   1.399       .  A
C886        H891   1.083       .  S
C887        C888   1.405       .  A
C888        F889   1.357       .  S
C893        C894   1.401       .  A
C893        C898   1.398       .  A
C893        H900   1.083       .  S
C894        C895   1.403       .  A
C895        C896   1.402       .  A
C895        F902   1.356       .  S
C896        C897   1.408       .  A
C896        H901   1.083       .  S
C897        C898   1.412       .  A
C898        F899   1.358       .  S
C903        C904   1.401       .  A
C903        C908   1.399       .  A
C903        H910   1.083       .  S
C904        C905   1.403       .  A
C905        C906   1.400       .  A
C905        F912   1.356       .  S
C906        C907   1.408       .  A
C906        H911   1.083       .  S
C907        C908   1.412       .  A
C908        F909   1.358       .  S
C913        C914   1.408       .  A
C913        C918   1.398       .  A
C913        H920   1.083       .  S
C914        C915   1.411       .  A
C915        C916   1.401       .  A
C915        F922   1.357       .  S
C916        C917   1.402       .  A
C916        H921   1.083       .  S
C917        C918   1.403       .  A
C918        F919   1.356       .  S
C923        C924   1.402       .  A
C923        C928   1.401       .  A
C923        H930   1.083       .  S
C924        C925   1.403       .  A
C925        C926   1.399       .  A
C925        F932   1.357       .  S
C926        C927   1.409       .  A
C926        H931   1.083       .  S
C927        C928   1.411       .  A
C928        F929   1.357       .  S
C933        C934   1.408       .  A
C933        C938   1.400       .  A
C933        H940   1.081       .  S
C934        C935   1.409       .  A
C935        C936   1.399       .  A
C935        F942   1.358       .  S
C936        C937   1.402       .  A
C936        H941   1.079       .  S
C937        C938   1.403       .  A
C938        F939   1.357       .  S
C943        C944   1.408       .  A
C943        C948   1.399       .  A
C943        H950   1.084       .  S
C944        C945   1.412       .  A
C945        C946   1.399       .  A
C945        F952   1.357       .  S
C946        C947   1.400       .  A
C946        H951   1.083       .  S
C947        C948   1.404       .  A
C948        F949   1.357       .  S
C953        C954   1.410       .  A
C953        C958   1.397       .  A
C953        H960   1.084       .  S
C954        C955   1.411       .  A
C955        C956   1.403       .  A
C955        F962   1.357       .  S
C956        C957   1.403       .  A
C956        H961   1.084       .  S
C957        C958   1.402       .  A
C958        F959   1.357       .  S
C963        C964   1.409       .  A
C963        C968   1.398       .  A
C963        H970   1.084       .  S
C964        C965   1.410       .  A
C965        C966   1.401       .  A
C965        F972   1.357       .  S
C966        C967   1.402       .  A
C966        H971   1.083       .  S
C967        C968   1.402       .  A
C968        F969   1.357       .  S
C973        C974   1.409       .  A
C973        C978   1.399       .  A
C973        H980   1.084       .  S
C974        C975   1.411       .  A
C975        C976   1.402       .  A
C975        F982   1.357       .  S
C976        C977   1.402       .  A
C976        H981   1.083       .  S
C977        C978   1.402       .  A
C978        F979   1.357       .  S
C983        C984   1.406       .  A
C983        C988   1.401       .  A
C983        H990   1.084       .  S
C984        C985   1.413       .  A
C985        C986   1.398       .  A
C985        F992   1.358       .  S
C986        C987   1.399       .  A
C986        H991   1.084       .  S
C987        C988   1.405       .  A
C988        F989   1.356       .  S
C993        C994   1.404       .  A
C993        C998   1.403       .  A
C993       H1000   1.083       .  S
C994        C995   1.401       .  A
C995        C996   1.398       .  A
C995       F1002   1.357       .  S
C996        C997   1.410       .  A
C996       H1001   1.083       .  S
C997        C998   1.409       .  A
C998        F999   1.357       .  S
C1003      C1004   1.399       .  A
C1003      C1008   1.398       .  A
C1003      H1010   1.083       .  S
C1004      C1005   1.405       .  A
C1005      C1006   1.404       .  A
C1005      F1012   1.356       .  S
C1006      C1007   1.407       .  A
C1006      H1011   1.083       .  S
C1007      C1008   1.415       .  A
C1008      F1009   1.358       .  S
C1013      C1014   1.409       .  A
C1013      C1018   1.399       .  A
C1013      H1020   1.084       .  S
C1014      C1015   1.410       .  A
C1015      C1016   1.403       .  A
C1015      F1022   1.357       .  S
C1016      C1017   1.404       .  A
C1016      H1021   1.083       .  S
C1017      C1018   1.402       .  A
C1018      F1019   1.357       .  S
C1023      C1024   1.407       .  A
C1023      C1028   1.402       .  A
C1023      H1030   1.083       .  S
C1024      C1025   1.413       .  A
C1025      C1026   1.399       .  A
C1025      F1032   1.358       .  S
C1026      C1027   1.400       .  A
C1026      H1031   1.083       .  S
C1027      C1028   1.405       .  A
C1028      F1029   1.356       .  S
C1033      C1034   1.409       .  A
C1033      C1038   1.396       .  A
C1033      H1040   1.084       .  S
C1034      C1035   1.410       .  A
C1035      C1036   1.403       .  A
C1035      F1042   1.357       .  S
C1036      C1037   1.403       .  A
C1036      H1041   1.083       .  S
C1037      C1038   1.401       .  A
C1038      F1039   1.357       .  S
C1043      C1044   1.410       .  A
C1043      C1048   1.397       .  A
C1043      H1050   1.084       .  S
C1044      C1045   1.410       .  A
C1045      C1046   1.402       .  A
C1045      F1052   1.357       .  S
C1046      C1047   1.403       .  A
C1046      H1051   1.084       .  S
C1047      C1048   1.401       .  A
C1048      F1049   1.357       .  S
C1053      C1054   1.402       .  A
C1053      C1058   1.399       .  A
C1053      H1060   1.082       .  S
C1054      C1055   1.405       .  A
C1055      C1056   1.403       .  A
C1055      F1062   1.357       .  S
C1056      C1057   1.408       .  A
C1056      H1061   1.082       .  S
C1057      C1058   1.411       .  A
C1058      F1059   1.358       .  S
C1063      C1064   1.402       .  A
C1063      C1068   1.402       .  A
C1063      H1070   1.083       .  S
C1064      C1065   1.402       .  A
C1065      C1066   1.395       .  A
C1065      F1072   1.357       .  S
C1066      C1067   1.408       .  A
C1066      H1071   1.084       .  S
C1067      C1068   1.411       .  A
C1068      F1069   1.357       .  S
C1073      C1074   1.409       .  A
C1073      C1078   1.399       .  A
C1073      H1080   1.083       .  S
C1074      C1075   1.409       .  A
C1075      C1076   1.398       .  A
C1075      F1082   1.357       .  S
C1076      C1077   1.402       .  A
C1076      H1081   1.083       .  S
C1077      C1078   1.402       .  A
C1078      F1079   1.357       .  S
C1083      C1084   1.409       .  A
C1083      C1088   1.401       .  A
C1083      H1090   1.084       .  S
C1084      C1085   1.411       .  A
C1085      C1086   1.402       .  A
C1085      F1092   1.357       .  S
C1086      C1087   1.403       .  A
C1086      H1091   1.084       .  S
C1087      C1088   1.403       .  A
C1088      F1089   1.356       .  S
C1093      C1094   1.408       .  A
C1093      C1098   1.402       .  A
C1093      H1100   1.083       .  S
C1094      C1095   1.413       .  A
C1095      C1096   1.398       .  A
C1095      F1102   1.358       .  S
C1096      C1097   1.400       .  A
C1096      H1101   1.083       .  S
C1097      C1098   1.405       .  A
C1098      F1099   1.356       .  S
C1103      C1104   1.407       .  A
C1103      C1108   1.400       .  A
C1103      H1110   1.083       .  S
C1104      C1105   1.411       .  A
C1105      C1106   1.399       .  A
C1105      F1112   1.358       .  S
C1106      C1107   1.401       .  A
C1106      H1111   1.083       .  S
C1107      C1108   1.404       .  A
C1108      F1109   1.356       .  S
C1113      C1114   1.403       .  A
C1113      C1118   1.403       .  A
C1113      H1120   1.082       .  S
C1114      C1115   1.402       .  A
C1115      C1116   1.398       .  A
C1115      F1122   1.358       .  S
C1116      C1117   1.410       .  A
C1116      H1121   1.083       .  S
C1117      C1118   1.410       .  A
C1118      F1119   1.357       .  S
C1123      C1124   1.401       .  A
C1123      C1128   1.399       .  A
C1123      H1130   1.083       .  S
C1124      C1125   1.404       .  A
C1125      C1126   1.400       .  A
C1125      F1132   1.357       .  S
C1126      C1127   1.407       .  A
C1126      H1131   1.083       .  S
C1127      C1128   1.411       .  A
C1128      F1129   1.358       .  S
C1133      C1134   1.402       .  A
C1133      C1138   1.400       .  A
C1133      H1140   1.083       .  S
C1134      C1135   1.403       .  A
C1135      C1136   1.399       .  A
C1135      F1142   1.357       .  S
C1136      C1137   1.408       .  A
C1136      H1141   1.084       .  S
C1137      C1138   1.411       .  A
C1138      F1139   1.357       .  S
C1143      C1144   1.403       .  A
C1143      C1148   1.403       .  A
C1143      H1150   1.083       .  S
C1144      C1145   1.404       .  A
C1145      C1146   1.399       .  A
C1145      F1152   1.356       .  S
C1146      C1147   1.408       .  A
C1146      H1151   1.084       .  S
C1147      C1148   1.412       .  A
C1148      F1149   1.357       .  S
C1153      C1154   1.408       .  A
C1153      C1158   1.403       .  A
C1153      H1160   1.083       .  S
C1154      C1155   1.412       .  A
C1155      C1156   1.400       .  A
C1155      F1162   1.358       .  S
C1156      C1157   1.401       .  A
C1156      H1161   1.083       .  S
C1157      C1158   1.404       .  A
C1158      F1159   1.357       .  S
C1163      C1164   1.408       .  A
C1163      C1168   1.404       .  A
C1163      H1170   1.083       .  S
C1164      C1165   1.415       .  A
C1165      C1166   1.397       .  A
C1165      F1172   1.358       .  S
C1166      C1167   1.399       .  A
C1166      H1171   1.083       .  S
C1167      C1168   1.404       .  A
C1168      F1169   1.356       .  S
C1173      C1174   1.408       .  A
C1173      C1178   1.397       .  A
C1173      H1180   1.084       .  S
C1174      C1175   1.411       .  A
C1175      C1176   1.401       .  A
C1175      F1182   1.357       .  S
C1176      C1177   1.402       .  A
C1176      H1181   1.083       .  S
C1177      C1178   1.402       .  A
C1178      F1179   1.357       .  S
C1183      C1184   1.407       .  A
C1183      C1188   1.399       .  A
C1183      H1190   1.082       .  S
C1184      C1185   1.410       .  A
C1185      C1186   1.400       .  A
C1185      F1192   1.358       .  S
C1186      C1187   1.402       .  A
C1186      H1191   1.082       .  S
C1187      C1188   1.402       .  A
C1188      F1189   1.357       .  S
C1193      C1194   1.407       .  A
C1193      C1198   1.400       .  A
C1193      H1200   1.084       .  S
C1194      C1195   1.411       .  A
C1195      C1196   1.399       .  A
C1195      F1202   1.358       .  S
C1196      C1197   1.401       .  A
C1196      H1201   1.084       .  S
C1197      C1198   1.404       .  A
C1198      F1199   1.356       .  S
C1203      C1204   1.402       .  A
C1203      C1208   1.402       .  A
C1203      H1210   1.082       .  S
C1204      C1205   1.402       .  A
C1205      C1206   1.398       .  A
C1205      F1212   1.358       .  S
C1206      C1207   1.409       .  A
C1206      H1211   1.083       .  S
C1207      C1208   1.411       .  A
C1208      F1209   1.357       .  S
C1213      C1214   1.410       .  A
C1213      C1218   1.398       .  A
C1213      H1220   1.083       .  S
C1214      C1215   1.410       .  A
C1215      C1216   1.402       .  A
C1215      F1222   1.357       .  S
C1216      C1217   1.403       .  A
C1216      H1221   1.082       .  S
C1217      C1218   1.402       .  A
C1218      F1219   1.358       .  S
C1223      C1224   1.402       .  A
C1223      C1228   1.399       .  A
C1223      H1230   1.082       .  S
C1224      C1225   1.403       .  A
C1225      C1226   1.399       .  A
C1225      F1232   1.357       .  S
C1226      C1227   1.408       .  A
C1226      H1231   1.082       .  S
C1227      C1228   1.410       .  A
C1228      F1229   1.357       .  S
C1233      C1234   1.402       .  A
C1233      C1238   1.400       .  A
C1233      H1240   1.083       .  S
C1234      C1235   1.403       .  A
C1235      C1236   1.399       .  A
C1235      F1242   1.356       .  S
C1236      C1237   1.408       .  A
C1236      H1241   1.083       .  S
C1237      C1238   1.410       .  A
C1238      F1239   1.357       .  S
C1243      C1244   1.402       .  A
C1243      C1248   1.402       .  A
C1243      H1250   1.083       .  S
C1244      C1245   1.402       .  A
C1245      C1246   1.398       .  A
C1245      F1252   1.357       .  S
C1246      C1247   1.409       .  A
C1246      H1251   1.083       .  S
C1247      C1248   1.411       .  A
C1248      F1249   1.357       .  S
C1253      C1254   1.403       .  A
C1253      C1258   1.403       .  A
C1253      H1260   1.084       .  S
C1254      C1255   1.402       .  A
C1255      C1256   1.399       .  A
C1255      F1262   1.357       .  S
C1256      C1257   1.410       .  A
C1256      H1261   1.084       .  S
C1257      C1258   1.411       .  A
C1258      F1259   1.357       .  S
C1263      C1264   1.399       .  A
C1263      C1268   1.397       .  A
C1263      H1270   1.083       .  S
C1264      C1265   1.404       .  A
C1265      C1266   1.402       .  A
C1265      F1272   1.357       .  S
C1266      C1267   1.407       .  A
C1266      H1271   1.083       .  S
C1267      C1268   1.413       .  A
C1268      F1269   1.358       .  S
C1273      C1274   1.409       .  A
C1273      C1278   1.400       .  A
C1273      H1280   1.084       .  S
C1274      C1275   1.412       .  A
C1275      C1276   1.401       .  A
C1275      F1282   1.357       .  S
C1276      C1277   1.401       .  A
C1276      H1281   1.083       .  S
C1277      C1278   1.404       .  A
C1278      F1279   1.357       .  S
C1283      C1284   1.406       .  A
C1283      C1288   1.402       .  A
C1283      H1290   1.083       .  S
C1284      C1285   1.413       .  A
C1285      C1286   1.399       .  A
C1285      F1292   1.358       .  S
C1286      C1287   1.400       .  A
C1286      H1291   1.083       .  S
C1287      C1288   1.405       .  A
C1288      F1289   1.356       .  S
C1293      C1294   1.402       .  A
C1293      C1298   1.401       .  A
C1293      H1300   1.082       .  S
C1294      C1295   1.403       .  A
C1295      C1296   1.400       .  A
C1295      F1302   1.357       .  S
C1296      C1297   1.409       .  A
C1296      H1301   1.083       .  S
C1297      C1298   1.411       .  A
C1298      F1299   1.357       .  S
C1303      C1304   1.403       .  A
C1303      C1308   1.401       .  A
C1303      H1310   1.083       .  S
C1304      C1305   1.401       .  A
C1305      C1306   1.398       .  A
C1305      F1312   1.357       .  S
C1306      C1307   1.410       .  A
C1306      H1311   1.084       .  S
C1307      C1308   1.409       .  A
C1308      F1309   1.357       .  S
C1313      C1314   1.400       .  A
C1313      C1318   1.398       .  A
C1313      H1320   1.084       .  S
C1314      C1315   1.403       .  A
C1315      C1316   1.400       .  A
C1315      F1322   1.357       .  S
C1316      C1317   1.407       .  A
C1316      H1321   1.083       .  S
C1317      C1318   1.412       .  A
C1318      F1319   1.358       .  S
C1323      C1324   1.407       .  A
C1323      C1328   1.401       .  A
C1323      H1330   1.084       .  S
C1324      C1325   1.412       .  A
C1325      C1326   1.397       .  A
C1325      F1332   1.358       .  S
C1326      C1327   1.399       .  A
C1326      H1331   1.084       .  S
C1327      C1328   1.403       .  A
C1328      F1329   1.357       .  S
C1333      C1334   1.410       .  A
C1333      C1338   1.397       .  A
C1333      H1340   1.084       .  S
C1334      C1335   1.410       .  A
C1335      C1336   1.403       .  A
C1335      F1342   1.357       .  S
C1336      C1337   1.403       .  A
C1336      H1341   1.083       .  S
C1337      C1338   1.401       .  A
C1338      F1339   1.357       .  S
C1343      C1344   1.403       .  A
C1343      C1348   1.403       .  A
C1343      H1350   1.084       .  S
C1344      C1345   1.401       .  A
C1345      C1346   1.396       .  A
C1345      F1352   1.357       .  S
C1346      C1347   1.410       .  A
C1346      H1351   1.084       .  S
C1347      C1348   1.410       .  A
C1348      F1349   1.357       .  S
C1353      C1354   1.411       .  A
C1353      C1358   1.398       .  A
C1353      H1360   1.084       .  S
C1354      C1355   1.410       .  A
C1355      C1356   1.403       .  A
C1355      F1362   1.357       .  S
C1356      C1357   1.404       .  A
C1356      H1361   1.084       .  S
C1357      C1358   1.401       .  A
C1358      F1359   1.357       .  S
C1363      C1364   1.410       .  A
C1363      C1368   1.396       .  A
C1363      H1370   1.084       .  S
C1364      C1365   1.409       .  A
C1365      C1366   1.402       .  A
C1365      F1372   1.357       .  S
C1366      C1367   1.403       .  A
C1366      H1371   1.083       .  S
C1367      C1368   1.400       .  A
C1368      F1369   1.357       .  S
C1373      C1374   1.402       .  A
C1373      C1378   1.401       .  A
C1373      H1380   1.082       .  S
C1374      C1375   1.402       .  A
C1375      C1376   1.398       .  A
C1375      F1382   1.357       .  S
C1376      C1377   1.409       .  A
C1376      H1381   1.083       .  S
C1377      C1378   1.411       .  A
C1378      F1379   1.357       .  S
C1383      C1384   1.408       .  A
C1383      C1388   1.400       .  A
C1383      H1390   1.083       .  S
C1384      C1385   1.412       .  A
C1385      C1386   1.401       .  A
C1385      F1392   1.357       .  S
C1386      C1387   1.402       .  A
C1386      H1391   1.083       .  S
C1387      C1388   1.403       .  A
C1388      F1389   1.356       .  S
C1393      C1394   1.400       .  A
C1393      C1398   1.398       .  A
C1393      H1400   1.083       .  S
C1394      C1395   1.406       .  A
C1395      C1396   1.402       .  A
C1395      F1402   1.356       .  S
C1396      C1397   1.406       .  A
C1396      H1401   1.083       .  S
C1397      C1398   1.413       .  A
C1398      F1399   1.358       .  S
C1403      C1404   1.403       .  A
C1403      C1408   1.402       .  A
C1403      H1410   1.083       .  S
C1404      C1405   1.402       .  A
C1405      C1406   1.397       .  A
C1405      F1412   1.356       .  S
C1406      C1407   1.409       .  A
C1406      H1411   1.083       .  S
C1407      C1408   1.410       .  A
C1408      F1409   1.357       .  S
C1413      C1414   1.402       .  A
C1413      C1418   1.400       .  A
C1413      H1420   1.082       .  S
C1414      C1415   1.403       .  A
C1415      C1416   1.399       .  A
C1415      F1422   1.357       .  S
C1416      C1417   1.408       .  A
C1416      H1421   1.082       .  S
C1417      C1418   1.411       .  A
C1418      F1419   1.357       .  S
C1423      C1424   1.402       .  A
C1423      C1428   1.400       .  A
C1423      H1430   1.082       .  S
C1424      C1425   1.402       .  A
C1425      C1426   1.398       .  A
C1425      F1432   1.357       .  S
C1426      C1427   1.409       .  A
C1426      H1431   1.083       .  S
C1427      C1428   1.410       .  A
C1428      F1429   1.357       .  S
C1433      C1434   1.401       .  A
C1433      C1438   1.400       .  A
C1433      H1440   1.084       .  S
C1434      C1435   1.405       .  A
C1435      C1436   1.401       .  A
C1435      F1442   1.356       .  S
C1436      C1437   1.406       .  A
C1436      H1441   1.083       .  S
C1437      C1438   1.412       .  A
C1438      F1439   1.358       .  S
C1443      C1444   1.400       .  A
C1443      C1448   1.397       .  A
C1443      H1450   1.083       .  S
C1444      C1445   1.404       .  A
C1445      C1446   1.402       .  A
C1445      F1452   1.356       .  S
C1446      C1447   1.408       .  A
C1446      H1451   1.082       .  S
C1447      C1448   1.413       .  A
C1448      F1449   1.358       .  S
C1453      C1454   1.399       .  A
C1453      C1458   1.397       .  A
C1453      H1460   1.084       .  S
C1454      C1455   1.405       .  A
C1455      C1456   1.404       .  A
C1455      F1462   1.357       .  S
C1456      C1457   1.408       .  A
C1456      H1461   1.083       .  S
C1457      C1458   1.415       .  A
C1458      F1459   1.358       .  S
C1463      C1464   1.407       .  A
C1463      C1468   1.402       .  A
C1463      H1470   1.083       .  S
C1464      C1465   1.413       .  A
C1465      C1466   1.398       .  A
C1465      F1472   1.358       .  S
C1466      C1467   1.400       .  A
C1466      H1471   1.084       .  S
C1467      C1468   1.404       .  A
C1468      F1469   1.356       .  S
C1473      C1474   1.409       .  A
C1473      C1478   1.397       .  A
C1473      H1480   1.084       .  S
C1474      C1475   1.410       .  A
C1475      C1476   1.403       .  A
C1475      F1482   1.357       .  S
C1476      C1477   1.403       .  A
C1476      H1481   1.083       .  S
C1477      C1478   1.401       .  A
C1478      F1479   1.357       .  S
C1483      C1484   1.407       .  A
C1483      C1488   1.399       .  A
C1483      H1490   1.082       .  S
C1484      C1485   1.411       .  A
C1485      C1486   1.399       .  A
C1485      F1492   1.358       .  S
C1486      C1487   1.401       .  A
C1486      H1491   1.081       .  S
C1487      C1488   1.403       .  A
C1488      F1489   1.357       .  S
C1493      C1494   1.408       .  A
C1493      C1498   1.401       .  A
C1493      H1500   1.083       .  S
C1494      C1495   1.411       .  A
C1495      C1496   1.400       .  A
C1495      F1502   1.358       .  S
C1496      C1497   1.402       .  A
C1496      H1501   1.082       .  S
C1497      C1498   1.403       .  A
C1498      F1499   1.357       .  S
C1503      C1504   1.403       .  A
C1503      C1508   1.403       .  A
C1503      H1510   1.083       .  S
C1504      C1505   1.401       .  A
C1505      C1506   1.397       .  A
C1505      F1512   1.357       .  S
C1506      C1507   1.410       .  A
C1506      H1511   1.084       .  S
C1507      C1508   1.410       .  A
C1508      F1509   1.357       .  S
C1513      C1514   1.401       .  A
C1513      C1518   1.402       .  A
C1513      H1520   1.084       .  S
C1514      C1515   1.404       .  A
C1515      C1516   1.400       .  A
C1515      F1522   1.357       .  S
C1516      C1517   1.409       .  A
C1516      H1521   1.084       .  S
C1517      C1518   1.412       .  A
C1518      F1519   1.357       .  S
C1523      C1524   1.407       .  A
C1523      C1528   1.399       .  A
C1523      H1530   1.083       .  S
C1524      C1525   1.412       .  A
C1525      C1526   1.399       .  A
C1525      F1532   1.358       .  S
C1526      C1527   1.400       .  A
C1526      H1531   1.083       .  S
C1527      C1528   1.403       .  A
C1528      F1529   1.357       .  S
C1533      C1534   1.407       .  A
C1533      C1538   1.399       .  A
C1533      H1540   1.083       .  S
C1534      C1535   1.410       .  A
C1535      C1536   1.399       .  A
C1535      F1542   1.358       .  S
C1536      C1537   1.402       .  A
C1536      H1541   1.082       .  S
C1537      C1538   1.403       .  A
C1538      F1539   1.357       .  S
C1543      C1544   1.408       .  A
C1543      C1548   1.404       .  A
C1543      H1550   1.083       .  S
C1544      C1545   1.415       .  A
C1545      C1546   1.397       .  A
C1545      F1552   1.358       .  S
C1546      C1547   1.399       .  A
C1546      H1551   1.084       .  S
C1547      C1548   1.405       .  A
C1548      F1549   1.356       .  S
C1553      C1554   1.400       .  A
C1553      C1558   1.398       .  A
C1553      H1560   1.084       .  S
C1554      C1555   1.404       .  A
C1555      C1556   1.401       .  A
C1555      F1562   1.356       .  S
C1556      C1557   1.407       .  A
C1556      H1561   1.084       .  S
C1557      C1558   1.413       .  A
C1558      F1559   1.358       .  S
C1563      C1564   1.401       .  A
C1563      C1568   1.398       .  A
C1563      H1570   1.083       .  S
C1564      C1565   1.403       .  A
C1565      C1566   1.401       .  A
C1565      F1572   1.356       .  S
C1566      C1567   1.408       .  A
C1566      H1571   1.083       .  S
C1567      C1568   1.412       .  A
C1568      F1569   1.358       .  S
C1573      C1574   1.397       .  A
C1573      C1578   1.396       .  A
C1573      H1580   1.083       .  S
C1574      C1575   1.406       .  A
C1575      C1576   1.403       .  A
C1575      F1582   1.357       .  S
C1576      C1577   1.406       .  A
C1576      H1581   1.083       .  S
C1577      C1578   1.415       .  A
C1578      F1579   1.358       .  S
C1583      C1584   1.399       .  A
C1583      C1588   1.398       .  A
C1583      H1590   1.084       .  S
C1584      C1585   1.405       .  A
C1585      C1586   1.403       .  A
C1585      F1592   1.357       .  S
C1586      C1587   1.407       .  A
C1586      H1591   1.084       .  S
C1587      C1588   1.414       .  A
C1588      F1589   1.358       .  S
C1593      C1594   1.403       .  A
C1593      C1598   1.403       .  A
C1593      H1600   1.083       .  S
C1594      C1595   1.402       .  A
C1595      C1596   1.399       .  A
C1595      F1602   1.357       .  S
C1596      C1597   1.410       .  A
C1596      H1601   1.084       .  S
C1597      C1598   1.411       .  A
C1598      F1599   1.357       .  S
C1603      C1604   1.400       .  A
C1603      C1608   1.398       .  A
C1603      H1610   1.083       .  S
C1604      C1605   1.404       .  A
C1605      C1606   1.398       .  A
C1605      F1612   1.356       .  S
C1606      C1607   1.406       .  A
C1606      H1611   1.083       .  S
C1607      C1608   1.411       .  A
C1608      F1609   1.357       .  S
C1613      C1614   1.407       .  A
C1613      C1618   1.402       .  A
C1613      H1620   1.082       .  S
C1614      C1615   1.411       .  A
C1615      C1616   1.400       .  A
C1615      F1622   1.358       .  S
C1616      C1617   1.401       .  A
C1616      H1621   1.081       .  S
C1617      C1618   1.405       .  A
C1618      F1619   1.357       .  S
C1623      C1624   1.400       .  A
C1623      C1628   1.399       .  A
C1623      H1630   1.084       .  S
C1624      C1625   1.404       .  A
C1625      C1626   1.399       .  A
C1625      F1632   1.357       .  S
C1626      C1627   1.406       .  A
C1626      H1631   1.084       .  S
C1627      C1628   1.410       .  A
C1628      F1629   1.358       .  S
C1633      C1634   1.404       .  A
C1633      C1638   1.402       .  A
C1633      H1640   1.083       .  S
C1634      C1635   1.401       .  A
C1635      C1636   1.399       .  A
C1635      F1642   1.357       .  S
C1636      C1637   1.411       .  A
C1636      H1641   1.084       .  S
C1637      C1638   1.409       .  A
C1638      F1639   1.357       .  S
C1643      C1644   1.403       .  A
C1643      C1648   1.402       .  A
C1643      H1650   1.083       .  S
C1644      C1645   1.401       .  A
C1645      C1646   1.397       .  A
C1645      F1652   1.357       .  S
C1646      C1647   1.410       .  A
C1646      H1651   1.084       .  S
C1647      C1648   1.409       .  A
C1648      F1649   1.357       .  S
C1653      C1654   1.399       .  A
C1653      C1658   1.396       .  A
C1653      H1660   1.083       .  S
C1654      C1655   1.403       .  A
C1655      C1656   1.401       .  A
C1655      F1662   1.357       .  S
C1656      C1657   1.407       .  A
C1656      H1661   1.083       .  S
C1657      C1658   1.413       .  A
C1658      F1659   1.358       .  S
C1663      C1664   1.401       .  A
C1663      C1668   1.400       .  A
C1663      H1670   1.082       .  S
C1664      C1665   1.404       .  A
C1665      C1666   1.401       .  A
C1665      F1672   1.357       .  S
C1666      C1667   1.408       .  A
C1666      H1671   1.083       .  S
C1667      C1668   1.412       .  A
C1668      F1669   1.358       .  S
C1673      C1674   1.399       .  A
C1673      C1678   1.398       .  A
C1673      H1680   1.084       .  S
C1674      C1675   1.405       .  A
C1675      C1676   1.400       .  A
C1675      F1682   1.356       .  S
C1676      C1677   1.406       .  A
C1676      H1681   1.083       .  S
C1677      C1678   1.413       .  A
C1678      F1679   1.358       .  S
C1683      C1684   1.403       .  A
C1683      C1688   1.402       .  A
C1683      H1690   1.083       .  S
C1684      C1685   1.402       .  A
C1685      C1686   1.400       .  A
C1685      F1692   1.357       .  S
C1686      C1687   1.409       .  A
C1686      H1691   1.083       .  S
C1687      C1688   1.410       .  A
C1688      F1689   1.357       .  S
C1693      C1694   1.399       .  A
C1693      C1698   1.396       .  A
C1693      H1700   1.083       .  S
C1694      C1695   1.404       .  A
C1695      C1696   1.401       .  A
C1695      F1702   1.357       .  S
C1696      C1697   1.407       .  A
C1696      H1701   1.083       .  S
C1697      C1698   1.413       .  A
C1698      F1699   1.358       .  S
C1703      C1704   1.402       .  A
C1703      C1708   1.401       .  A
C1703      H1710   1.082       .  S
C1704      C1705   1.404       .  A
C1705      C1706   1.401       .  A
C1705      F1712   1.357       .  S
C1706      C1707   1.408       .  A
C1706      H1711   1.082       .  S
C1707      C1708   1.412       .  A
C1708      F1709   1.357       .  S
