geometry optimzed in LAMMPS
_audit_creation_date              2020-12-01 
_audit_creation_method            'lammps2cif' 
_symmetry_space_group_name_H-M    'P1' 
_symmetry_Int_Tables_number       1 
_symmetry_cell_setting            triclinic 
loop_ 
_symmetry_equiv_pos_as_xyz 
  x,y,z 
_cell_length_a                    55.39380891 
_cell_length_b                    55.40337404367665 
_cell_length_c                    30.388358580262853 
_cell_angle_alpha                 89.92900516944358 
_cell_angle_beta                  90.12763086875547 
_cell_angle_gamma                 120.14201797830994 
loop_ 
_atom_site_label 
_atom_site_type_symbol 
_atom_site_fract_x 
_atom_site_fract_y 
_atom_site_fract_z 
_atom_site_charge 
C1          C  0.45599466  0.70553356  0.20871675     0.79700
N2          N  0.45614769  0.72751217  0.18886456    -0.78600
C3          C  0.45495859  0.74736812  0.21322249     0.82100
N4          N  0.45430770  0.74554148  0.25783220    -0.78500
C5          C  0.45417145  0.72355888  0.27803852     0.82200
N6          N  0.45477052  0.70344638  0.25326488    -0.80300
C7          C  0.46559181  0.70761198  0.67607496     0.79700
N8          N  0.46601671  0.70782323  0.63144228    -0.78600
C9          C  0.46447362  0.72817278  0.60879855     0.82100
N10         N  0.46271423  0.74843238  0.63125995    -0.78500
C11         C  0.46220970  0.74823156  0.67595724     0.82200
N12         N  0.46372569  0.72781693  0.69822240    -0.80300
C13         C  0.21087972  0.77234664  0.66611277     0.79700
N14         N  0.20848478  0.77443528  0.62198320    -0.78600
C15         C  0.18517969  0.75556894  0.60004508     0.82100
N16         N  0.16397833  0.73420057  0.62248163    -0.78500
C17         C  0.16588320  0.73196771  0.66678271     0.82200
N18         N  0.18940721  0.75100851  0.68803280    -0.80300
C19         C  0.20876730  0.77750645  0.20200207     0.79700
N20         N  0.20711339  0.77965918  0.24643608    -0.78600
C21         C  0.18458463  0.75965400  0.26880576     0.82100
N22         N  0.16415416  0.73748787  0.24664719    -0.78500
C23         C  0.16587047  0.73517160  0.20254772     0.82200
N24         N  0.18816057  0.75522503  0.18060569    -0.80300
C25         C  0.18983641  0.48427004  0.21734704     0.79700
N26         N  0.20915754  0.48008500  0.19704272    -0.78600
C27         C  0.23229184  0.48396993  0.21841784     0.82100
N28         N  0.23619219  0.49227680  0.26109640    -0.78500
C29         C  0.21711523  0.49672513  0.28210690     0.82200
N30         N  0.19398035  0.49275410  0.25999125    -0.80300
C31         C  0.19860279  0.50052566  0.67518429     0.79700
N32         N  0.21796218  0.49748149  0.69785282    -0.78600
C33         C  0.24116984  0.50083360  0.67769405     0.82100
N34         N  0.24468038  0.50633777  0.63396367    -0.78500
C35         C  0.22537405  0.50936649  0.61077549     0.82200
N36         N  0.20220404  0.50632956  0.63138097    -0.80300
C37         C  0.74822291  0.23599621  0.67202666     0.79700
N38         N  0.74793451  0.23429492  0.62746744    -0.78600
C39         C  0.72556459  0.21367710  0.60586637     0.82100
N40         N  0.70357534  0.19406186  0.62937480    -0.78500
C41         C  0.70358341  0.19548263  0.67399639     0.82200
N42         N  0.72599387  0.21631446  0.69485315    -0.80300
C43         C  0.74702784  0.24097057  0.20636568     0.79700
N44         N  0.72659439  0.21878573  0.18442436    -0.78600
C45         C  0.70725470  0.19588994  0.20654648     0.82100
N46         N  0.70840805  0.19554166  0.25125063    -0.78500
C47         C  0.72903787  0.21750432  0.27375700     0.82200
N48         N  0.74837463  0.23992618  0.25084067    -0.80300
C49         C  0.69115413  0.48194871  0.21044940     0.79700
N50         N  0.69019710  0.47994775  0.25500321    -0.78600
C51         C  0.71209275  0.48162099  0.27791391     0.82100
N52         N  0.73534290  0.48622453  0.25588786    -0.78500
C53         C  0.73664237  0.48877800  0.21137678     0.82200
N54         N  0.71438525  0.48635052  0.18877419    -0.80300
C55         C  0.68175132  0.47303608  0.67496566     0.79700
N56         N  0.70332432  0.47458663  0.69845219    -0.78600
C57         C  0.72635960  0.47773541  0.67763692     0.82100
N58         N  0.72787729  0.47963076  0.63305742    -0.78500
C59         C  0.70634541  0.47807580  0.60925984     0.82200
N60         N  0.68335537  0.47491436  0.63041203    -0.80300
C61         C  0.44609539  0.20185966  0.67736214     0.79700
N62         N  0.44469999  0.22228546  0.69951490    -0.78600
C63         C  0.44252491  0.24240138  0.67756105     0.82100
N64         N  0.44186649  0.24204307  0.63287499    -0.78500
C65         C  0.44289042  0.22140247  0.61035391     0.82200
N66         N  0.44537440  0.20150639  0.63274627    -0.80300
C67         C  0.42631654  0.19020552  0.21407294     0.79700
N68         N  0.42438864  0.21020041  0.19133659    -0.78600
C69         C  0.42247201  0.23070864  0.21249546     0.82100
N70         N  0.42272906  0.23124952  0.25729200    -0.78500
C71         C  0.42443361  0.21109823  0.28052745     0.82200
N72         N  0.42633498  0.19067832  0.25873107    -0.80300
N73         N  0.47158506  0.52254632  0.86496784    -0.06600
N74         N  0.46763343  0.53714548  0.83456715    -0.58800
N75         N  0.51746638  0.50349063  0.89505677    -0.06300
N76         N  0.54231451  0.50643382  0.88758032    -0.60900
N77         N  0.49969487  0.48759105  0.86463653    -0.05900
N78         N  0.51194032  0.47953723  0.83594308    -0.58700
N79         N  0.48899026  0.53899922  0.89537018    -0.05600
N80         N  0.49716748  0.56535323  0.88625715    -0.61200
C81         C  0.48372371  0.56374558  0.84809250     0.95500
C82         C  0.53854267  0.49139421  0.85039619     0.95300
N83         N  0.49902372  0.48533548  0.02782647    -0.06800
N84         N  0.51094688  0.47641836  0.05579033    -0.59300
N85         N  0.48754208  0.53744106  0.99989674    -0.04900
N86         N  0.49266859  0.56311689  0.00759734    -0.60600
N87         N  0.47005218  0.52012134  0.02940370    -0.06900
N88         N  0.46304126  0.53349325  0.05773727    -0.59600
N89         N  0.51722310  0.50244399  0.99899300    -0.04600
N90         N  0.54213812  0.50553802  0.00711337    -0.60700
Mn91       Mn  0.50385168  0.52163465  0.94749372     1.18400
C92         C  0.53784891  0.48919932  0.04300342     0.97600
C93         C  0.47738907  0.56027304  0.04410412     0.98300
N94         N  0.44188758  0.43348877  0.86302209    -0.06900
N95         N  0.44977390  0.42032429  0.83585794    -0.63200
N96         N  0.39503341  0.45159661  0.89389042    -0.05700
N97         N  0.37039960  0.44939793  0.88691480    -0.63900
N98         N  0.41318221  0.46836326  0.86459965    -0.06400
N99         N  0.40148481  0.47782168  0.83717887    -0.63400
N100        N  0.42407299  0.41615800  0.89203501    -0.05300
N101        N  0.41942693  0.39062569  0.88496494    -0.64100
Mn102      Mn  0.45645186  0.47794069  0.86325597     1.10700
C103        C  0.43578710  0.39361258  0.84985367     0.98800
C104        C  0.37493630  0.46607604  0.85147868     0.98900
N105        N  0.41218190  0.46528264  0.02807149    -0.06400
N106        N  0.39985804  0.47330177  0.05672111    -0.61800
N107        N  0.42387585  0.41448883  0.99539400    -0.05700
N108        N  0.41840788  0.38855232  0.00095694    -0.58500
N109        N  0.44135101  0.43078565  0.02583106    -0.07000
N110        N  0.44809425  0.41641397  0.05266346    -0.61300
N111        N  0.39440668  0.44926293  0.99776455    -0.06000
N112        N  0.36946259  0.44605129  0.00534881    -0.58500
Mn113      Mn  0.45566634  0.47539462  0.02895126     1.20200
Mn114      Mn  0.40817254  0.43183468  0.94467882     1.10100
Cl115      Cl  0.45599225  0.47680195  0.94610821    -0.86500
C116        C  0.37320892  0.46119951  0.04235463     0.95900
C117        C  0.43392259  0.39016733  0.03662178     0.95600
N118        N  0.99399768  0.52931597  0.01717214    -0.06600
N119        N  0.01399880  0.54484481  0.04521819    -0.58800
N120        N  0.92771416  0.50947667  0.99167431    -0.06300
N121        N  0.90689204  0.51379248  0.00106993    -0.60900
N122        N  0.93057807  0.49462627  0.02289059    -0.05900
N123        N  0.91198931  0.48864601  0.05421487    -0.58700
N124        N  0.99146505  0.54489173  0.98688920    -0.05600
N125        N  0.00961968  0.57149365  0.99388654    -0.61200
C126        C  0.02354528  0.57098919  0.03014054     0.95500
C127        C  0.89740179  0.50070725  0.04021523     0.95300
N128        N  0.92558045  0.48999183  0.85758945    -0.06800
N129        N  0.90525980  0.48261623  0.82876735    -0.59300
N130        N  0.98890137  0.54222666  0.88316311    -0.04900
N131        N  0.00819206  0.56820058  0.87412844    -0.60600
N132        N  0.98931595  0.52510841  0.85363771     0.00000
N133        N  0.00877964  0.53902924  0.82392318    -0.59600
N134        N  0.92490099  0.50690914  0.88722400    -0.04600
N135        N  0.90405557  0.51141756  0.87902135    -0.60700
Mn136      Mn  0.95809174  0.52659547  0.93716004     1.18400
C137        C  0.89203027  0.49616761  0.84230661     0.97600
C138        C  0.02063047  0.56587061  0.83730311     0.98300
N139        N  0.93386869  0.44023008  0.02412922    -0.06900
N140        N  0.91328553  0.42735833  0.05238671    -0.63200
N141        N  0.99770950  0.45706458  0.99094193    -0.05700
N142        N  0.01884334  0.45288781  0.99855420    -0.63900
N143        N  0.99768519  0.47473987  0.01975795    -0.06400
N144        N  0.01880881  0.48315180  0.04729660    -0.63400
N145        N  0.93341628  0.42265369  0.99464966    -0.05300
N146        N  0.91233729  0.39728259  0.00240723    -0.64100
Mn147      Mn  0.96420909  0.48475278  0.02206410     1.10700
C148        C  0.89983936  0.40066636  0.03833126     0.98800
C149        C  0.03192630  0.46956703  0.03350833     0.98900
N150        N  0.99299589  0.47025822  0.85587569    -0.06400
N151        N  0.01241793  0.47703810  0.82572433    -0.61800
N152        N  0.93120526  0.41960216  0.89049386    -0.05700
N153        N  0.91208347  0.39319018  0.88380750    -0.58500
N154        N  0.92947396  0.43550595  0.85994538    -0.07000
N155        N  0.90919537  0.42042261  0.83207323    -0.61300
N156        N  0.99525720  0.45486647  0.88684050    -0.06000
N157        N  0.01653570  0.45106361  0.87848263    -0.58500
Mn158      Mn  0.95931841  0.48018240  0.85565508     1.20200
Mn159      Mn  0.96444791  0.43761418  0.94084968     1.10100
Cl160      Cl  0.96152948  0.48229185  0.93890015    -0.86500
C161        C  0.02686322  0.46489281  0.84009836     0.95900
C162        C  0.89831744  0.39416171  0.84754896     0.95600
N163        N  0.47130484  0.94640768  0.02438279    -0.06600
N164        N  0.46409887  0.92714688  0.05491172    -0.58800
N165        N  0.52264437  0.00929896  0.99396445    -0.06300
N166        N  0.54853435  0.02942651  0.00157415    -0.60900
N167        N  0.50561101  0.01024467  0.02311324    -0.05900
N168        N  0.51948392  0.03092709  0.05104208    -0.58700
N169        N  0.48826485  0.94494897  0.99573590    -0.05600
N170        N  0.49297565  0.92449880  0.00650792    -0.61200
C171        C  0.47779605  0.91367471  0.04377635     0.95500
C172        C  0.54620066  0.04294220  0.03704455     0.95300
N173        N  0.50702159  0.00854346  0.85900119    -0.06800
N174        N  0.52103159  0.02921470  0.83128210    -0.59300
N175        N  0.48859124  0.94379461  0.89132065    -0.04900
N176        N  0.49195229  0.92204189  0.88511922    -0.60600
N177        N  0.47248657  0.94478723  0.86034607    -0.06900
N178        N  0.46468544  0.92396276  0.83255961    -0.59600
N179        N  0.52358720  0.00831433  0.88984875    -0.04600
N180        N  0.54941307  0.02898802  0.88351617    -0.60700
Mn181      Mn  0.50674365  0.97649460  0.94266022     1.18400
C182        C  0.54735752  0.04198452  0.84702210     0.97600
C183        C  0.47696844  0.90991139  0.84816083     0.98300
N184        N  0.45016454  0.01251574  0.02082414    -0.06900
N185        N  0.45474399  0.03080629  0.05204183    -0.63200
N186        N  0.40015359  0.94953859  0.98825016    -0.05700
N187        N  0.37423674  0.92895614  0.99269439    -0.63900
N188        N  0.41606868  0.94863727  0.01959631    -0.06400
N189        N  0.40126916  0.92744870  0.04617893    -0.63400
N190        N  0.43394470  0.01347309  0.99007805    -0.05300
N191        N  0.42701784  0.03243189  0.00015696    -0.64100
Mn192      Mn  0.46080435  0.97949187  0.02307744     1.10700
C193        C  0.44016960  0.04309411  0.03904976     0.98800
C194        C  0.37528686  0.91518925  0.02874345     0.98900
N195        N  0.41754658  0.94793520  0.85628038    -0.06400
N196        N  0.40297008  0.92810336  0.82727055    -0.61800
N197        N  0.43636431  0.01356643  0.88565598    -0.05700
N198        N  0.43309076  0.03516246  0.87752490    -0.58500
N199        N  0.45263796  0.01183975  0.85590833    -0.07000
N200        N  0.46077764  0.03212688  0.82689185    -0.61300
N201        N  0.40094876  0.94938845  0.88562911    -0.06000
N202        N  0.37473178  0.93045562  0.87732504    -0.58500
Mn203      Mn  0.46246278  0.97817484  0.85663836     1.20200
Mn204      Mn  0.41716753  0.98170403  0.93733165     1.10100
Cl205      Cl  0.46184159  0.97900906  0.93994562    -0.86500
C206        C  0.37621729  0.91738862  0.84069254     0.95900
C207        C  0.44835991  0.04639979  0.84066117     0.95600
C208        C  0.45226654  0.34577601  0.10923044    -0.11900
C209        C  0.42776256  0.31979726  0.10618498     0.14600
C210        C  0.40610207  0.31658325  0.07788017     0.01500
C211        C  0.40902997  0.33969282  0.05451019    -0.16300
C212        C  0.43334939  0.36593635  0.05818124    -0.11100
C213        C  0.45556638  0.36865767  0.08494360     0.08300
C214        C  0.42580053  0.29655910  0.13276025     0.09300
S215        S  0.37414736  0.28378856  0.07051497    -0.25400
H216        H  0.39196783  0.33723551  0.03399615     0.19600
S217        S  0.48906625  0.40019061  0.08844373    -0.31100
H218        H  0.46910131  0.34808770  0.13021651     0.09900
C219        C  0.44107633  0.28350581  0.12128804     0.03100
C220        C  0.43951112  0.26219491  0.14804931    -0.13400
C221        C  0.42280121  0.25339565  0.18607583    -0.09100
C222        C  0.40707134  0.26627663  0.19689843     0.06500
C223        C  0.40902355  0.28791886  0.17047773    -0.14100
S224        S  0.46209316  0.29360167  0.07196455    -0.31100
H225        H  0.45155607  0.25243857  0.13938575     0.10800
S226        S  0.38297213  0.25516572  0.24212916    -0.28200
H227        H  0.39708297  0.29785343  0.17897523     0.08000
H228        H  0.48997059  0.40703460  0.04363883     0.26400
H229        H  0.47285514  0.27556864  0.07743703     0.21200
H230        H  0.37307516  0.22657436  0.23546589     0.26500
H231        H  0.38534373  0.26646850  0.07935661     0.15400
C232        C  0.44021476  0.08793155  0.13449667    -0.11900
C233        C  0.43061623  0.10407118  0.11363800     0.14600
C234        C  0.42406826  0.10003072  0.06829760     0.01500
C235        C  0.42748320  0.08014903  0.04493572    -0.16300
C236        C  0.43691287  0.06372972  0.06582640    -0.11100
C237        C  0.44288272  0.06754308  0.11161234     0.08300
C238        C  0.42911069  0.12581880  0.13983098     0.09300
S239        S  0.41129690  0.11948795  0.03827685    -0.25400
H240        H  0.42270895  0.07752035  0.01013702     0.19600
S241        S  0.45291092  0.04665544  0.14380891    -0.31100
H242        H  0.44537240  0.09105268  0.16917454     0.09900
C243        C  0.41070430  0.11895221  0.17581779     0.03100
C244        C  0.41079752  0.14038995  0.20055628    -0.13400
C245        C  0.42890984  0.16851826  0.18998832    -0.09100
C246        C  0.44787126  0.17527253  0.15472966     0.06500
C247        C  0.44757741  0.15391875  0.12988816    -0.14100
S248        S  0.38624633  0.08295049  0.18910840    -0.31100
H249        H  0.39615444  0.13527198  0.22731369     0.10800
S250        S  0.47373863  0.21064653  0.14080869    -0.28200
H251        H  0.46222571  0.15921848  0.10305221     0.08000
H252        H  0.43067150  0.02121367  0.12830556     0.26400
H253        H  0.37658949  0.08818727  0.22872353     0.21200
H254        H  0.47806092  0.22082135  0.18420727     0.26500
H255        H  0.39820260  0.12419916  0.07412887     0.15400
C256        C  0.41290002  0.21944720  0.40164557    -0.11900
C257        C  0.43511123  0.21797721  0.42098108     0.14600
C258        C  0.45327119  0.21349661  0.39416067     0.01500
C259        C  0.44907664  0.21114626  0.34856541    -0.16300
C260        C  0.42689930  0.21271575  0.32902957    -0.11100
C261        C  0.40832370  0.21640613  0.35618607     0.08300
C262        C  0.43758516  0.21947269  0.46938277     0.09300
S263        S  0.48243114  0.21106783  0.41555809    -0.25400
H264        H  0.46340403  0.20823426  0.32805485     0.19600
S265        S  0.37738545  0.21547540  0.33558129    -0.31100
H266        H  0.39855332  0.22220972  0.42235614     0.09900
C267        C  0.45478058  0.24476614  0.49152080     0.03100
C268        C  0.45601758  0.24492324  0.53767920    -0.13400
C269        C  0.44045903  0.22022225  0.56194608    -0.09100
C270        C  0.42284766  0.19502212  0.53942518     0.06500
C271        C  0.42179161  0.19492164  0.49351152    -0.14100
S272        S  0.47506279  0.27670215  0.46096047    -0.31100
H273        H  0.46936961  0.26423552  0.55495361     0.10800
S274        S  0.40014719  0.16258354  0.56715196    -0.28200
H275        H  0.40826971  0.17558292  0.47634506     0.08000
H276        H  0.37248589  0.19633547  0.30158403     0.26400
H277        H  0.48781931  0.29411218  0.49752886     0.21200
H278        H  0.39300214  0.17483718  0.60149566     0.26500
H279        H  0.47276839  0.20318148  0.45876649     0.15400
C280        C  0.42879051  0.32346565  0.82013088    -0.11900
C281        C  0.44203146  0.32987419  0.77902398     0.14600
C282        C  0.45423015  0.35728366  0.76264096     0.01500
C283        C  0.45178218  0.37735689  0.78665032    -0.16300
C284        C  0.43817398  0.37109133  0.82769228    -0.11100
C285        C  0.42736166  0.34388639  0.84516247     0.08300
C286        C  0.44219700  0.30742107  0.75339934     0.09300
S287        S  0.47321039  0.36799637  0.71141264    -0.25400
H288        H  0.46072916  0.39813119  0.77288803     0.19600
S289        S  0.41252174  0.33396889  0.89938290    -0.31100
H290        H  0.41984547  0.30246229  0.83301360     0.09900
C291        C  0.45832410  0.29558212  0.76667395     0.03100
C292        C  0.45785453  0.27431808  0.74127610    -0.13400
C293        C  0.44161556  0.26466521  0.70277875    -0.09100
C294        C  0.42515664  0.27642102  0.68996536     0.06500
C295        C  0.42591278  0.29787796  0.71513187    -0.14100
S296        S  0.48029335  0.30827527  0.81499226    -0.31100
H297        H  0.47056047  0.26545893  0.75108183     0.10800
S298        S  0.40168500  0.26415180  0.64354113    -0.28200
H299        H  0.41331590  0.30689216  0.70533184     0.08000
H300        H  0.43460009  0.35755428  0.91980655     0.26400
H301        H  0.49108130  0.29012335  0.81244402     0.21200
H302        H  0.39239780  0.23574233  0.65104356     0.26500
H303        H  0.48327998  0.34923194  0.71299722     0.15400
C304        C  0.43268795  0.14572633  0.76037011    -0.11900
C305        C  0.45515763  0.14144326  0.75215160     0.14600
C306        C  0.47436313  0.15683375  0.71844503     0.01500
C307        C  0.47032689  0.17568132  0.69329117    -0.16300
C308        C  0.44800443  0.18010139  0.70197258    -0.11100
C309        C  0.42895204  0.16488376  0.73582967     0.08300
C310        C  0.45573262  0.11835901  0.77557566     0.09300
S311        S  0.50461074  0.15377975  0.70648019    -0.25400
H312        H  0.48515543  0.18759670  0.66771417     0.19600
S313        S  0.39875820  0.16796781  0.74808074    -0.31100
H314        H  0.41744344  0.13340316  0.78520391     0.09900
C315        C  0.45649900  0.11733410  0.82195078     0.03100
C316        C  0.45371101  0.09339124  0.84246097    -0.13400
C317        C  0.45048416  0.07067979  0.81749751    -0.09100
C318        C  0.44982541  0.07185343  0.77109103     0.06500
C319        C  0.45262177  0.09568115  0.75072569    -0.14100
S320        S  0.46166057  0.14665767  0.85500300    -0.31100
H321        H  0.45440451  0.09245048  0.87794168     0.10800
S322        S  0.44351712  0.04305069  0.73596553    -0.28200
H323        H  0.45127439  0.09613181  0.71524459     0.08000
H324        H  0.39392004  0.17298144  0.70445288     0.26400
H325        H  0.46073141  0.13469280  0.89627661     0.21200
H326        H  0.42332505  0.02242168  0.76359278     0.26500
H327        H  0.50782949  0.14603747  0.74922800     0.15400
C328        C  0.62396199  0.45651349  0.75655701    -0.11900
C329        C  0.61894535  0.47847637  0.74816318     0.14600
C330        C  0.63325878  0.49739345  0.71368980     0.01500
C331        C  0.65282652  0.49433057  0.68910103    -0.16300
C332        C  0.65834882  0.47273406  0.69808495    -0.11100
C333        C  0.64331073  0.45328031  0.73163629     0.08300
C334        C  0.59848307  0.48094161  0.77570397     0.09300
S335        S  0.62828476  0.52636331  0.70036419    -0.25400
H336        H  0.66443888  0.50941484  0.66359008     0.19600
S337        S  0.64727475  0.42360522  0.74362291    -0.31100
H338        H  0.61261292  0.44174802  0.78258416     0.09900
C339        C  0.56975144  0.46419515  0.76760290     0.03100
C340        C  0.55092620  0.46783983  0.79325134    -0.13400
C341        C  0.56015080  0.48818138  0.82669371    -0.09100
C342        C  0.58919283  0.50479231  0.83485799     0.06500
C343        C  0.60795457  0.50073570  0.80958900    -0.14100
S344        S  0.55713494  0.43900917  0.72330527    -0.31100
H345        H  0.52882348  0.45492411  0.78659358     0.10800
S346        S  0.60391521  0.53221576  0.87527465    -0.28200
H347        H  0.63018525  0.51362676  0.81552934     0.08000
H348        H  0.65489051  0.42060869  0.70073538     0.26400
H349        H  0.52849583  0.42743687  0.73204483     0.21200
H350        H  0.59000564  0.54562447  0.85838496     0.26500
H351        H  0.60046482  0.51415204  0.71450657     0.15400
C352        C  0.77101103  0.46890810  0.76378954    -0.11900
C353        C  0.79735540  0.49181182  0.75432228     0.14600
C354        C  0.80015734  0.50994705  0.71949499     0.01500
C355        C  0.77681086  0.50432059  0.69414269    -0.16300
C356        C  0.75045299  0.48133137  0.70350713    -0.11100
C357        C  0.74761011  0.46342896  0.73875545     0.08300
C358        C  0.82191714  0.49406717  0.77744486     0.09300
S359        S  0.83284891  0.54075418  0.70625077    -0.25400
H360        H  0.77909035  0.51840157  0.66767592     0.19600
S361        S  0.71523386  0.43231462  0.75183624    -0.31100
H362        H  0.76889051  0.45459791  0.78977948     0.09900
C363        C  0.82599776  0.49901845  0.82305262     0.03100
C364        C  0.84920266  0.49985759  0.84328236    -0.13400
C365        C  0.86821017  0.49547764  0.81890526    -0.09100
C366        C  0.86408920  0.49071695  0.77297681     0.06500
C367        C  0.84093796  0.48995999  0.75299356    -0.14100
S368        S  0.80211304  0.50494973  0.85530812    -0.31100
H369        H  0.85241859  0.50369293  0.87826326     0.10800
S370        S  0.88866982  0.48707378  0.73855032    -0.28200
H371        H  0.83754206  0.48620732  0.71800074     0.08000
H372        H  0.70561119  0.42621408  0.70814499     0.26400
H373        H  0.81337097  0.50471525  0.89675184     0.21200
H374        H  0.87249537  0.47890558  0.69986505     0.26500
H375        H  0.84351453  0.54575240  0.74940134     0.15400
C376        C  0.57769753  0.47459777  0.13162493    -0.11900
C377        C  0.60298094  0.48263394  0.11033866     0.14600
C378        C  0.60654999  0.49197733  0.06630209     0.01500
C379        C  0.58485428  0.49341933  0.04486851    -0.16300
C380        C  0.55980435  0.48637017  0.06672998    -0.11100
C381        C  0.55636816  0.47695419  0.11102737     0.08300
C382        C  0.62548757  0.48227032  0.13620941     0.09300
S383        S  0.63837653  0.50292911  0.03600047    -0.25400
H384        H  0.58778837  0.50057088  0.01107145     0.19600
S385        S  0.52623374  0.46997921  0.14370986    -0.31100
H386        H  0.57524914  0.46752766  0.16539988     0.09900
C387        C  0.63757150  0.50018927  0.17268633     0.03100
C388        C  0.65832000  0.49892236  0.19727772    -0.13400
C389        C  0.66753125  0.48040115  0.18581093    -0.09100
C390        C  0.65507347  0.46208526  0.14982881     0.06500
C391        C  0.63422598  0.46324349  0.12533293    -0.14100
S392        S  0.62742930  0.52553342  0.18692499    -0.31100
H393        H  0.66803308  0.51295799  0.22469020     0.10800
S394        S  0.66428349  0.43630934  0.13439568    -0.28200
H395        H  0.62458154  0.44911192  0.09797621     0.08000
H396        H  0.53272004  0.45949356  0.18130045     0.26400
H397        H  0.64518426  0.53700669  0.22353423     0.21200
H398        H  0.67088693  0.43171893  0.17717110     0.26500
H399        H  0.65655527  0.51310717  0.07230041     0.15400
C400        C  0.72321725  0.46777669  0.39712262    -0.11900
C401        C  0.70928901  0.47932592  0.41943525     0.14600
C402        C  0.69609573  0.49120371  0.39516070     0.01500
C403        C  0.69678747  0.49094706  0.34920884    -0.16300
C404        C  0.71086622  0.47958267  0.32656264    -0.11100
C405        C  0.72385354  0.46742020  0.35107415     0.08300
C406        C  0.70842990  0.47826336  0.46799924     0.09300
S407        S  0.67818604  0.50718005  0.42072460    -0.25400
H408        H  0.68684970  0.50041521  0.33103243     0.19600
S409        S  0.74021352  0.44977396  0.32602642    -0.31100
H410        H  0.73305616  0.45836894  0.41573688     0.09900
C411        C  0.68390373  0.45965994  0.49078093     0.03100
C412        C  0.68369191  0.46037818  0.53688998    -0.13400
C413        C  0.70756237  0.47926966  0.56068537    -0.09100
C414        C  0.73201473  0.49811592  0.53753588     0.06500
C415        C  0.73231049  0.49704709  0.49157511    -0.14100
S416        S  0.65310487  0.43466474  0.46111655    -0.31100
H417        H  0.66501135  0.44582879  0.55456408     0.10800
S418        S  0.76287407  0.52512665  0.56430197    -0.28200
H419        H  0.75101014  0.51164172  0.47389991     0.08000
H420        H  0.72030302  0.43748816  0.29218171     0.26400
H421        H  0.63567279  0.42325687  0.49800389     0.21200
H422        H  0.74832397  0.53063756  0.59697444     0.26500
H423        H  0.69445075  0.51607770  0.45922008     0.15400
C424        C  0.79471350  0.51114752  0.12752096    -0.11900
C425        C  0.80501390  0.49337593  0.13844524     0.14600
C426        C  0.79357129  0.47518605  0.17476278     0.01500
C427        C  0.77233862  0.47529711  0.19932413    -0.16300
C428        C  0.76136454  0.49235362  0.18750976    -0.11100
C429        C  0.77299884  0.51077451  0.15142836     0.08300
C430        C  0.82854663  0.49526016  0.11265967     0.09300
S431        S  0.80418791  0.45042997  0.19015554    -0.25400
H432        H  0.76333667  0.46086825  0.22670163     0.19600
S433        S  0.76172333  0.53484653  0.13492332    -0.31100
H434        H  0.80385350  0.52560626  0.10022799     0.09900
C435        C  0.82590933  0.48885950  0.06733972     0.03100
C436        C  0.84904484  0.49171157  0.04406737    -0.13400
C437        C  0.87454089  0.50028094  0.06541644    -0.09100
C438        C  0.87714695  0.50675117  0.11078643     0.06500
C439        C  0.85417851  0.50420062  0.13383642    -0.14100
S440        S  0.79273212  0.47555455  0.03963981    -0.31100
H441        H  0.84705199  0.48634033  0.00953978     0.10800
S442        S  0.90933021  0.51914053  0.14092410    -0.28200
H443        H  0.85633541  0.50946145  0.16846187     0.08000
H444        H  0.75565358  0.53983926  0.17774216     0.26400
H445        H  0.80248261  0.47564927  0.99689694     0.21200
H446        H  0.92690455  0.53445078  0.10581101     0.26500
H447        H  0.81011633  0.44560079  0.14715115     0.15400
C448        C  0.64921653  0.12354700  0.17087018    -0.11900
C449        C  0.64014213  0.13015278  0.13194365     0.14600
C450        C  0.65361301  0.15805954  0.11734404     0.01500
C451        C  0.67507084  0.17882856  0.14259352    -0.16300
C452        C  0.68436278  0.17246512  0.18167656    -0.11100
C453        C  0.67151789  0.14420680  0.19531812     0.08300
C454        C  0.61626932  0.10772078  0.10753078     0.09300
S455        S  0.64462935  0.16843392  0.06644618    -0.25400
H456        H  0.68466535  0.20023379  0.13131927     0.19600
S457        S  0.68339222  0.13275649  0.24184243    -0.31100
H458        H  0.63917137  0.10202438  0.18178885     0.09900
C459        C  0.61917961  0.08805217  0.08223130     0.03100
C460        C  0.59616254  0.06762071  0.05863653    -0.13400
C461        C  0.57018062  0.06634976  0.05992516    -0.09100
C462        C  0.56758804  0.08658717  0.08471040     0.06500
C463        C  0.59053053  0.10679672  0.10847068    -0.14100
S464        S  0.65231352  0.08921579  0.07952123    -0.31100
H465        H  0.59826873  0.05221441  0.03989072     0.10800
S466        S  0.53610896  0.08861264  0.08623379    -0.28200
H467        H  0.58846946  0.12222905  0.12731724     0.08000
H468        H  0.71192948  0.15092380  0.23344446     0.26400
H469        H  0.64450821  0.06830441  0.04741780     0.21200
H470        H  0.52990907  0.08246162  0.04129970     0.26500
H471        H  0.63814649  0.14396501  0.04322171     0.15400
C472        C  0.78274414  0.29879456  0.12128347    -0.11900
C473        C  0.81036951  0.31190540  0.13626875     0.14600
C474        C  0.81674032  0.30283007  0.17568430     0.01500
C475        C  0.79565567  0.27981015  0.19787626    -0.16300
C476        C  0.76802547  0.26598012  0.18230996    -0.11100
C477        C  0.76143931  0.27629168  0.14418025     0.08300
C478        C  0.83232054  0.33416473  0.10915935     0.09300
S479        S  0.85144404  0.31947567  0.19878525    -0.25400
H480        H  0.80099699  0.27244726  0.22743729     0.19600
S481        S  0.72634427  0.26263342  0.12393519    -0.31100
H482        H  0.77775475  0.30620748  0.09141064     0.09900
C483        C  0.85026687  0.32901843  0.08316363     0.03100
C484        C  0.87163455  0.35094852  0.05926988    -0.13400
C485        C  0.87530636  0.37791286  0.06071217    -0.09100
C486        C  0.85633405  0.38263815  0.08530504     0.06500
C487        C  0.83526834  0.36078287  0.10959007    -0.14100
S488        S  0.84579588  0.29444329  0.08021736    -0.31100
H489        H  0.88586177  0.34721102  0.04018574     0.10800
S490        S  0.85705479  0.41556653  0.08600350    -0.28200
H491        H  0.82107121  0.36449129  0.12889812     0.08000
H492        H  0.71414487  0.25799985  0.16593312     0.26400
H493        H  0.86998743  0.30177527  0.05557865     0.21200
H494        H  0.86346492  0.42113879  0.04102271     0.26500
H495        H  0.85937849  0.34652992  0.18410732     0.15400
C496        C  0.59013084  0.10704302  0.77805605    -0.11900
C497        C  0.61612398  0.10855918  0.77808627     0.14600
C498        C  0.61994748  0.08921697  0.80301643     0.01500
C499        C  0.59737196  0.06819935  0.82627390    -0.16300
C500        C  0.57101830  0.06604996  0.82516508    -0.11100
C501        C  0.56748888  0.08604095  0.80125868     0.08300
C502        C  0.63852258  0.13046188  0.75109304     0.09300
S503        S  0.65273456  0.08969692  0.80555555    -0.25400
H504        H  0.60024381  0.05302676  0.84444797     0.19600
S505        S  0.53463891  0.08571229  0.80081695    -0.31100
H506        H  0.58761065  0.12221319  0.75926984     0.09900
C507        C  0.64555031  0.12446368  0.70964247     0.03100
C508        C  0.66638782  0.14617980  0.68458647    -0.13400
C509        C  0.68004798  0.17385545  0.69993364    -0.09100
C510        C  0.67186097  0.17982836  0.74077355     0.06500
C511        C  0.65157666  0.15804775  0.76607935    -0.14100
S512        S  0.62764015  0.08925186  0.68842621    -0.31100
H513        H  0.67238732  0.14150634  0.65327241     0.10800
S514        S  0.68518205  0.21474457  0.76156354    -0.28200
H515        H  0.64545032  0.16267402  0.79738592     0.08000
H516        H  0.54314118  0.10937240  0.77408622     0.26400
H517        H  0.64173288  0.09527660  0.64790578     0.21200
H518        H  0.68632737  0.22658188  0.72006699     0.26500
H519        H  0.67005957  0.11836802  0.79749791     0.15400
C520        C  0.70280172  0.20308026  0.48558181    -0.11900
C521        C  0.72821186  0.21116284  0.46439642     0.14600
C522        C  0.75254868  0.21994309  0.48987428     0.01500
C523        C  0.75104070  0.22074475  0.53573614    -0.16300
C524        C  0.72562480  0.21263561  0.55715979    -0.11100
C525        C  0.70126068  0.20397528  0.53146782     0.08300
C526        C  0.72907558  0.21242462  0.41570974     0.09300
S527        S  0.78609772  0.23023831  0.46584053    -0.25400
H528        H  0.76984052  0.22737035  0.55485644     0.19600
S529        S  0.66804308  0.19575459  0.55458056    -0.31100
H530        H  0.68423348  0.19697810  0.46609010     0.09900
C531        C  0.71564885  0.18816417  0.38977876     0.03100
C532        C  0.71623334  0.19056148  0.34381572    -0.13400
C533        C  0.73017714  0.21676555  0.32281286    -0.09100
C534        C  0.74418926  0.24118533  0.34930881     0.06500
C535        C  0.74327103  0.23857355  0.39528887    -0.14100
S536        S  0.69824998  0.15407983  0.41519655    -0.31100
H537        H  0.70577576  0.17178020  0.32416963     0.10800
S538        S  0.76251937  0.27600383  0.32616396    -0.28200
H539        H  0.75346381  0.25702155  0.41578535     0.08000
H540        H  0.67946431  0.21755461  0.58560413     0.26400
H541        H  0.69248111  0.13849000  0.37616040     0.21200
H542        H  0.76999089  0.29097250  0.36597470     0.26500
H543        H  0.77564269  0.21234152  0.42926306     0.15400
C544        C  0.81479853  0.30398551  0.70246225    -0.11900
C545        C  0.81579474  0.30049671  0.74796652     0.14600
C546        C  0.79495712  0.27587673  0.76802990     0.01500
C547        C  0.77397695  0.25515966  0.74210623    -0.16300
C548        C  0.77227948  0.25868194  0.69645781    -0.11100
C549        C  0.79315173  0.28376806  0.67663214     0.08300
C550        C  0.83725549  0.32401591  0.77396938     0.09300
S551        S  0.79329100  0.26982738  0.82664217    -0.25400
H552        H  0.75840338  0.23631728  0.75833498     0.19600
S553        S  0.79287730  0.29250582  0.61957828    -0.31100
H554        H  0.83051939  0.32319586  0.68720321     0.09900
C555        C  0.85911887  0.32272631  0.79558979     0.03100
C556        C  0.87818803  0.34549183  0.82115425    -0.13400
C557        C  0.87596436  0.36957728  0.82484317    -0.09100
C558        C  0.85380324  0.37056107  0.80338551     0.06500
C559        C  0.83494055  0.34794483  0.77792538    -0.14100
S560        S  0.86339565  0.29268647  0.78911855    -0.31100
H561        H  0.89544426  0.34497107  0.83693412     0.10800
S562        S  0.84780252  0.39959019  0.80818932    -0.28200
H563        H  0.81791977  0.34873886  0.76171817     0.08000
H564        H  0.76514927  0.28695970  0.62100989     0.26400
H565        H  0.88527705  0.30100957  0.81967876     0.21200
H566        H  0.85633190  0.40537618  0.85243316     0.26500
H567        H  0.80497497  0.29784997  0.83953418     0.15400
C568        C  0.30730240  0.50960152  0.72949391    -0.11900
C569        C  0.29679600  0.48403366  0.75172312     0.14600
C570        C  0.26805956  0.46425869  0.74930986     0.01500
C571        C  0.25041429  0.47064451  0.72554536    -0.16300
C572        C  0.26095037  0.49598956  0.70280744    -0.11100
C573        C  0.28970564  0.51576781  0.70493792     0.08300
C574        C  0.31627965  0.47868758  0.77738234     0.09300
S575        S  0.25279384  0.43031609  0.77477733    -0.25400
H576        H  0.22832948  0.45536527  0.72376504     0.19600
S577        S  0.30503278  0.54942385  0.67843010    -0.31100
H578        H  0.32935239  0.52492177  0.73161822     0.09900
C579        C  0.33732656  0.47589931  0.75629699     0.03100
C580        C  0.35580719  0.47148593  0.78167029    -0.13400
C581        C  0.35368691  0.46961086  0.82774801    -0.09100
C582        C  0.33245001  0.47226319  0.84888434     0.06500
C583        C  0.31383924  0.47657040  0.82340662    -0.14100
S584        S  0.34031350  0.47729908  0.69698437    -0.31100
H585        H  0.37201841  0.46936162  0.76543869     0.10800
S586        S  0.32892377  0.47193992  0.90785578    -0.28200
H587        H  0.29771607  0.47892260  0.83955571     0.08000
H588        H  0.28152833  0.55267888  0.68216968     0.26400
H589        H  0.36194375  0.47106149  0.69422271     0.21200
H590        H  0.35777523  0.48707912  0.91645468     0.26500
H591        H  0.27610261  0.42693272  0.76897716     0.15400
C592        C  0.07523104  0.46937888  0.74859565    -0.11900
C593        C  0.09987171  0.47723411  0.77205362     0.14600
C594        C  0.09997550  0.47961386  0.81840820     0.01500
C595        C  0.07535913  0.47381218  0.84013184    -0.16300
C596        C  0.05093063  0.46674892  0.81645777    -0.11100
C597        C  0.05079383  0.46397300  0.77020955     0.08300
C598        C  0.12492944  0.48275475  0.74686570     0.09300
S599        S  0.13090765  0.49097802  0.85156557    -0.25400
H600        H  0.07565526  0.47619960  0.87553791     0.19600
S601        S  0.01998004  0.45282950  0.73694709    -0.31100
H602        H  0.07500621  0.46722336  0.71314001     0.09900
C603        C  0.13586273  0.46468368  0.74911870     0.03100
C604        C  0.15968137  0.47091379  0.72467885    -0.13400
C605        C  0.17286931  0.49485742  0.69805806    -0.09100
C606        C  0.16181792  0.51288556  0.69574551     0.06500
C607        C  0.13773435  0.50641074  0.71965113    -0.14100
S608        S  0.11920561  0.43336183  0.78218718    -0.31100
H609        H  0.16803973  0.45696772  0.72606669     0.10800
S610        S  0.17822727  0.54508952  0.66508810    -0.28200
H611        H  0.12932845  0.52032516  0.71805594     0.08000
H612        H  0.00118010  0.43468165  0.76874015     0.26400
H613        H  0.14040690  0.42656925  0.77826969     0.21200
H614        H  0.20577022  0.55150326  0.67382419     0.26500
H615        H  0.15026508  0.50732076  0.81903264     0.15400
C616        C  0.22706522  0.53287126  0.49291687    -0.11900
C617        C  0.22690646  0.51080497  0.47005408     0.14600
C618        C  0.22796956  0.48941098  0.49368141     0.01500
C619        C  0.22823945  0.49006405  0.53959572    -0.16300
C620        C  0.22759166  0.51164963  0.56259372    -0.11100
C621        C  0.22762896  0.53363049  0.53901103     0.08300
C622        C  0.22409481  0.50969468  0.42176704     0.09300
S623        S  0.22751948  0.45993299  0.46753079    -0.25400
H624        H  0.22821061  0.47316675  0.55759183     0.19600
S625        S  0.22880420  0.56324681  0.56568483    -0.31100
H626        H  0.22650240  0.54940253  0.47475354     0.09900
C627        C  0.19778285  0.49420451  0.40159427     0.03100
C628        C  0.19611324  0.49148474  0.35573418    -0.13400
C629        C  0.22028282  0.50366488  0.32957019    -0.09100
C630        C  0.24661966  0.52021619  0.35003646     0.06500
C631        C  0.24819016  0.52300811  0.39586553    -0.14100
S632        S  0.16643196  0.47697610  0.43444760    -0.31100
H633        H  0.17595410  0.47873839  0.34040778     0.10800
S634        S  0.27894794  0.53847044  0.31996865    -0.28200
H635        H  0.26837598  0.53511661  0.41159157     0.08000
H636        H  0.24314612  0.56261378  0.60351185     0.26400
H637        H  0.14741288  0.46628828  0.39918012     0.21200
H638        H  0.26741696  0.54519291  0.28395537     0.26500
H639        H  0.24005608  0.47314164  0.42777041     0.15400
C640        C  0.29082359  0.47014584  0.18663882    -0.11900
C641        C  0.29350857  0.47686677  0.14171863     0.14600
C642        C  0.27627639  0.48596332  0.12253294     0.01500
C643        C  0.25657610  0.48783513  0.14854248    -0.16300
C644        C  0.25359180  0.48099932  0.19357033    -0.11100
C645        C  0.27089448  0.47180508  0.21268095     0.08300
C646        C  0.31381337  0.47325879  0.11550856     0.09300
S647        S  0.27812765  0.49548448  0.06523090    -0.25400
H648        H  0.24368345  0.49512140  0.13339504     0.19600
S649        S  0.26768858  0.46038153  0.26900704    -0.31100
H650        H  0.30388518  0.46286567  0.20118207     0.09900
C651        C  0.34255922  0.49242325  0.11858853     0.03100
C652        C  0.36117213  0.48813170  0.09342380    -0.13400
C653        C  0.35172135  0.46504298  0.06503934    -0.09100
C654        C  0.32268014  0.44608141  0.06163750     0.06500
C655        C  0.30411503  0.45033634  0.08707821    -0.14100
S656        S  0.35552173  0.52246081  0.15433577    -0.31100
H657        H  0.38330751  0.50287168  0.09612373     0.10800
S658        S  0.30802739  0.41532713  0.02775052    -0.28200
H659        H  0.28191345  0.43562267  0.08488158     0.08000
H660        H  0.23832218  0.44615793  0.26915438     0.26400
H661        H  0.38383101  0.53462561  0.14267559     0.21200
H662        H  0.31788142  0.43075948  0.98856448     0.26500
H663        H  0.30555704  0.50154766  0.05712399     0.15400
C664        C  0.09984073  0.49787485  0.09612961    -0.11900
C665        C  0.09881552  0.47314803  0.10932390     0.14600
C666        C  0.07657429  0.44719364  0.09502688     0.01500
C667        C  0.05544591  0.44657524  0.06879643    -0.16300
C668        C  0.05621672  0.47134966  0.05632823    -0.11100
C669        C  0.07899377  0.49727796  0.06946315     0.08300
C670        C  0.12173743  0.47542145  0.13707727     0.09300
S671        S  0.07363202  0.41425976  0.10979580    -0.25400
H672        H  0.03794455  0.42662034  0.05897915     0.19600
S673        S  0.08303293  0.53031110  0.05244063    -0.31100
H674        H  0.11720285  0.51781271  0.10639148     0.09900
C675        C  0.14767506  0.48260635  0.11844218     0.03100
C676        C  0.16931553  0.48549201  0.14567736    -0.13400
C677        C  0.16562114  0.48096325  0.19139291    -0.09100
C678        C  0.13923684  0.47326644  0.20985172     0.06500
C679        C  0.11775341  0.47095977  0.18253957    -0.14100
S680        S  0.15307367  0.48767923  0.05973911    -0.31100
H681        H  0.18937603  0.49152527  0.13108153     0.10800
S682        S  0.13103991  0.46484386  0.26715095    -0.28200
H683        H  0.09761808  0.46523079  0.19667749     0.08000
H684        H  0.07011454  0.52094757  0.01116780     0.26400
H685        H  0.18036418  0.49201394  0.05913181     0.21200
H686        H  0.14445353  0.44903730  0.27012926     0.26500
H687        H  0.10233752  0.42409878  0.11432754     0.15400
C688        C  0.11095419  0.66159689  0.16903493    -0.11900
C689        C  0.10528992  0.66628366  0.12591838     0.14600
C690        C  0.11876225  0.69360505  0.10879262     0.01500
C691        C  0.13790814  0.71561248  0.13501984    -0.16300
C692        C  0.14421966  0.71099303  0.17795253    -0.11100
C693        C  0.13048597  0.68351203  0.19504739     0.08300
C694        C  0.08484516  0.64221667  0.10004871     0.09300
S695        S  0.11257102  0.70179106  0.05388526    -0.25400
H696        H  0.14815843  0.73655454  0.12157182     0.19600
S697        S  0.13785015  0.67455227  0.24846072    -0.31100
H698        H  0.10047968  0.64055581  0.18212978     0.09900
C699        C  0.09102177  0.62196066  0.08455903     0.03100
C700        C  0.07046255  0.59869218  0.06192276    -0.13400
C701        C  0.04427099  0.59581564  0.05364564    -0.09100
C702        C  0.03821061  0.61623071  0.06888523     0.06500
C703        C  0.05863176  0.63930771  0.09180401    -0.14100
S704        S  0.12530982  0.62624206  0.09229691    -0.31100
H705        H  0.07484386  0.58286740  0.05004709     0.10800
S706        S  0.00452601  0.61336766  0.06193023    -0.28200
H707        H  0.05393555  0.65486010  0.10405002     0.08000
H708        H  0.16698578  0.69149022  0.24442768     0.26400
H709        H  0.12032023  0.60216865  0.06919329     0.21200
H710        H  0.98896385  0.58430136  0.06828162     0.26500
H711        H  0.10602170  0.67618054  0.03453623     0.15400
C712        C  0.32857685  0.85358493  0.10140927    -0.11900
C713        C  0.30291823  0.85239254  0.09535195     0.14600
C714        C  0.30064729  0.87003877  0.06421048     0.01500
C715        C  0.32446147  0.88969808  0.04186503    -0.16300
C716        C  0.35047194  0.89172732  0.04913865    -0.11100
C717        C  0.35220149  0.87255260  0.07787818     0.08300
C718        C  0.27915438  0.83313539  0.12299720     0.09300
S719        S  0.26814449  0.86878104  0.05200614    -0.25400
H720        H  0.32270505  0.90392359  0.01936210     0.19600
S721        S  0.38348197  0.87056498  0.08515352    -0.31100
H722        H  0.33014281  0.83954614  0.12457438     0.09900
C723        C  0.26586667  0.80410315  0.11684246     0.03100
C724        C  0.24332434  0.78659529  0.14377996    -0.13400
C725        C  0.23353481  0.79750260  0.17652120    -0.09100
C726        C  0.24682897  0.82672915  0.18213888     0.06500
C727        C  0.26971309  0.84417508  0.15576366    -0.14100
S728        S  0.27704694  0.78943504  0.07377610    -0.31100
H729        H  0.23317812  0.76421899  0.13922032     0.10800
S730        S  0.23466345  0.84318044  0.22003108    -0.28200
H731        H  0.27986785  0.86659966  0.16004472     0.08000
H732        H  0.39145684  0.87581171  0.04064879     0.26400
H733        H  0.25600616  0.76147299  0.07975397     0.21200
H734        H  0.20619982  0.82454438  0.21181217     0.26500
H735        H  0.25085475  0.84012602  0.06044186     0.15400
C736        C  0.08228887  0.61114047  0.76244683    -0.11900
C737        C  0.08347274  0.63693637  0.76617699     0.14600
C738        C  0.06447704  0.63934829  0.79408766     0.01500
C739        C  0.04436076  0.61587423  0.81679024    -0.16300
C740        C  0.04305871  0.58996483  0.81324765    -0.11100
C741        C  0.06270152  0.58780958  0.78618770     0.08300
C742        C  0.10465255  0.66095808  0.74051597     0.09300
S743        S  0.06489414  0.67179636  0.80228532    -0.25400
H744        H  0.02954145  0.61791285  0.83736062     0.19600
S745        S  0.06485219  0.55648239  0.78186239    -0.31100
H746        H  0.09708459  0.60933342  0.74144582     0.09900
C747        C  0.13305260  0.67468632  0.75237914     0.03100
C748        C  0.15235822  0.69780726  0.72787187    -0.13400
C749        C  0.14393176  0.70781062  0.69178074    -0.09100
C750        C  0.11519070  0.69420823  0.68075297     0.06500
C751        C  0.09603799  0.67075823  0.70471820    -0.14100
S752        S  0.14460726  0.66320662  0.79948303    -0.31100
H753        H  0.17422158  0.70799932  0.73673998     0.10800
S754        S  0.10117621  0.70660209  0.63873008    -0.28200
H755        H  0.07408507  0.66046663  0.69616951     0.08000
H756        H  0.06066461  0.55023891  0.82707405     0.26400
H757        H  0.17291988  0.68405009  0.79742473     0.21200
H758        H  0.11824113  0.73484777  0.65028013     0.26500
H759        H  0.09392476  0.68918551  0.79795455     0.15400
C760        C  0.18817488  0.78250596  0.38801470    -0.11900
C761        C  0.18219961  0.75789811  0.41021775     0.14600
C762        C  0.17554872  0.73372759  0.38567155     0.01500
C763        C  0.17671008  0.73515566  0.33977962    -0.16300
C764        C  0.18334840  0.75991020  0.31737520    -0.11100
C765        C  0.18831324  0.78362071  0.34192615     0.08300
C766        C  0.18361803  0.75816832  0.45887234     0.09300
S767        S  0.16550307  0.70047094  0.41081401    -0.25400
H768        H  0.17246211  0.71669711  0.32136434     0.19600
S769        S  0.19348026  0.81528821  0.31672367    -0.31100
H770        H  0.19257973  0.80091083  0.40677350     0.09900
C771        C  0.20549620  0.75725094  0.48112731     0.03100
C772        C  0.20564091  0.75677393  0.52725693    -0.13400
C773        C  0.18421724  0.75692839  0.55158446    -0.09100
C774        C  0.16262076  0.75839454  0.52930230     0.06500
C775        C  0.16257388  0.75906086  0.48311224    -0.14100
S776        S  0.23340988  0.75704448  0.45079410    -0.31100
H777        H  0.22231561  0.75592875  0.54454715     0.10800
S778        S  0.13595640  0.76090282  0.55946602    -0.28200
H779        H  0.14605244  0.76009472  0.46566002     0.08000
H780        H  0.17583033  0.80207011  0.28055801     0.26400
H781        H  0.24700696  0.75351016  0.48727712     0.21200
H782        H  0.12072694  0.76143943  0.52274923     0.26500
H783        H  0.15345039  0.70448723  0.44871514     0.15400
C784        C  0.28424283  0.83181806  0.69647552    -0.11900
C785        C  0.28268399  0.83126046  0.74255030     0.14600
C786        C  0.25782772  0.81110726  0.76306361     0.01500
C787        C  0.23501176  0.79267681  0.73728618    -0.16300
C788        C  0.23639782  0.79282541  0.69093494    -0.11100
C789        C  0.26191866  0.81246749  0.67058894     0.08300
C790        C  0.30675271  0.85275318  0.76821419     0.09300
S791        S  0.25393931  0.80750180  0.82205123    -0.25400
H792        H  0.21603805  0.77787433  0.75402682     0.19600
S793        S  0.26832925  0.81353890  0.61233514    -0.31100
H794        H  0.30327974  0.84724324  0.68051938     0.09900
C795        C  0.33326913  0.85500211  0.76687070     0.03100
C796        C  0.35549352  0.87629039  0.79076474    -0.13400
C797        C  0.35177276  0.89524667  0.81654325    -0.09100
C798        C  0.32501981  0.89270179  0.81791595     0.06500
C799        C  0.30297814  0.87157671  0.79393440    -0.14100
S800        S  0.33867487  0.83027950  0.73592265    -0.31100
H801        H  0.37582495  0.87801180  0.78967877     0.10800
S802        S  0.31767935  0.91643632  0.84749472    -0.28200
H803        H  0.28272685  0.87009842  0.79464315     0.08000
H804        H  0.25899056  0.78479857  0.60978322     0.26400
H805        H  0.36621845  0.83980431  0.74999210     0.21200
H806        H  0.34110448  0.94046174  0.83075458     0.26500
H807        H  0.28201368  0.81601830  0.83106613     0.15400
C808        C  0.45395402  0.65032930  0.75570406    -0.11900
C809        C  0.47962028  0.65114021  0.75277610     0.14600
C810        C  0.50014033  0.66992784  0.72325868     0.01500
C811        C  0.49443956  0.68722393  0.69706861    -0.16300
C812        C  0.46897125  0.68670733  0.70058269    -0.11100
C813        C  0.44841971  0.66790740  0.72995841     0.08300
C814        C  0.48331384  0.63043379  0.77799701     0.09300
S815        S  0.53417065  0.67334108  0.71837956    -0.25400
H816        H  0.51037441  0.70192289  0.67491223     0.19600
S817        S  0.41452734  0.66474391  0.73515623    -0.31100
H818        H  0.43793795  0.63550514  0.77761249     0.09900
C819        C  0.48404521  0.63059725  0.82440081     0.03100
C820        C  0.48563401  0.60926422  0.84672815    -0.13400
C821        C  0.48632591  0.58779545  0.82343941    -0.09100
C822        C  0.48703769  0.58854857  0.77690295     0.06500
C823        C  0.48508285  0.60956833  0.75476264    -0.14100
S824        S  0.48305747  0.65795507  0.85515572    -0.31100
H825        H  0.48537381  0.60874844  0.88227447     0.10800
S826        S  0.49115135  0.56385403  0.74377912    -0.28200
H827        H  0.48487768  0.60966308  0.71916458     0.08000
H828        H  0.41306046  0.67282555  0.69180563     0.26400
H829        H  0.48124243  0.64649736  0.89719592     0.21200
H830        H  0.50855993  0.56052224  0.77396556     0.26500
H831        H  0.53580184  0.66593295  0.76210209     0.15400
C832        C  0.49061462  0.85285185  0.80643875    -0.11900
C833        C  0.46890739  0.83956203  0.77577731     0.14600
C834        C  0.44942055  0.84861915  0.77057819     0.01500
C835        C  0.45224869  0.87093180  0.79580299    -0.16300
C836        C  0.47450684  0.88504891  0.82562573    -0.11100
C837        C  0.49386408  0.87565647  0.83100215     0.08300
C838        C  0.46713523  0.81632495  0.74969224     0.09300
S839        S  0.42059176  0.83285651  0.73225811    -0.25400
H840        H  0.43706622  0.87759120  0.79141075     0.19600
S841        S  0.52382862  0.89239622  0.86667296    -0.31100
H842        H  0.50553771  0.84581610  0.81040055     0.09900
C843        C  0.48462130  0.82129851  0.71314386     0.03100
C844        C  0.48185348  0.79864823  0.68862129    -0.13400
C845        C  0.46214043  0.77114803  0.70029570    -0.09100
C846        C  0.44438746  0.76631356  0.73666225     0.06500
C847        C  0.44716835  0.78894370  0.76104554    -0.14100
S848        S  0.51046594  0.85645992  0.69780453    -0.31100
H849        H  0.49564062  0.80228982  0.66111217     0.10800
S850        S  0.41733502  0.73197902  0.75295995    -0.28200
H851        H  0.43351784  0.78525064  0.78883088     0.08000
H852        H  0.53292811  0.91914347  0.84921478     0.26400
H853        H  0.51809495  0.84955804  0.65764940     0.21200
H854        H  0.41134148  0.72081893  0.71015862     0.26500
H855        H  0.43308795  0.82359980  0.70156898     0.15400
C856        C  0.46871929  0.60365811  0.13230171    -0.11900
C857        C  0.46639309  0.62353380  0.10694338     0.14600
C858        C  0.46961816  0.62368039  0.06076045     0.01500
C859        C  0.47455801  0.60366020  0.04107983    -0.16300
C860        C  0.47588713  0.58316211  0.06647346    -0.11100
C861        C  0.47355978  0.58369529  0.11277747     0.08300
C862        C  0.46241861  0.64470318  0.13048974     0.09300
S863        S  0.46682186  0.64820459  0.02509106    -0.25400
H864        H  0.47624843  0.60340748  0.00564837     0.19600
S865        S  0.47781863  0.56037361  0.14920174    -0.31100
H866        H  0.46721408  0.60401953  0.16777249     0.09900
C867        C  0.43862045  0.63695132  0.15676987     0.03100
C868        C  0.43720810  0.65715917  0.18262026    -0.13400
C869        C  0.45886068  0.68500610  0.18208309    -0.09100
C870        C  0.48242756  0.69285398  0.15518816     0.06500
C871        C  0.48394158  0.67265913  0.12970101    -0.14100
S872        S  0.40962833  0.60154798  0.15626672    -0.31100
H873        H  0.41899758  0.65142606  0.20274716     0.10800
S874        S  0.51167394  0.72802871  0.15320446    -0.28200
H875        H  0.50240501  0.67860870  0.11007335     0.08000
H876        H  0.49879033  0.55979591  0.12396579     0.26400
H877        H  0.39405736  0.60497217  0.18966533     0.21200
H878        H  0.51005946  0.73448505  0.19745658     0.26500
H879        H  0.44798523  0.65162691  0.05160273     0.15400
C880        C  0.46740397  0.86404127  0.13805952    -0.11900
C881        C  0.47204994  0.84430936  0.11697369     0.14600
C882        C  0.47981607  0.84807310  0.07215014     0.01500
C883        C  0.48173363  0.87090629  0.04910269    -0.16300
C884        C  0.47673247  0.89056410  0.07007544    -0.11100
C885        C  0.47033602  0.88744717  0.11565983     0.08300
C886        C  0.46755857  0.81961251  0.14255262     0.09300
S887        S  0.48766886  0.82461656  0.04267415    -0.25400
H888        H  0.48704298  0.87323754  0.01448139     0.19600
S889        S  0.46704632  0.91348164  0.14677899    -0.31100
H890        H  0.46148888  0.86100572  0.17240615     0.09900
C891        C  0.48397068  0.82231950  0.17987504     0.03100
C892        C  0.47848824  0.79844969  0.20382573    -0.13400
C893        C  0.45697748  0.77195508  0.19113572    -0.09100
C894        C  0.43989227  0.76941420  0.15483180     0.06500
C895        C  0.44548066  0.79319334  0.13072130    -0.14100
S896        S  0.51285176  0.85590989  0.19575593    -0.31100
H897        H  0.49166126  0.80023688  0.23130869     0.10800
S898        S  0.41023868  0.73657120  0.13847418    -0.28200
H899        H  0.43237293  0.79118454  0.10298498     0.08000
H900        H  0.46486417  0.90186587  0.18878712     0.26400
H901        H  0.51903674  0.84717846  0.23557855     0.21200
H902        H  0.40401696  0.72486937  0.18093271     0.26500
H903        H  0.49806657  0.81705208  0.07919517     0.15400
C904        C  0.47177110  0.71463707  0.39584935    -0.11900
C905        C  0.45437888  0.72150347  0.41950436     0.14600
C906        C  0.43624930  0.72810355  0.39658842     0.01500
C907        C  0.43675563  0.72878616  0.35050840    -0.16300
C908        C  0.45443372  0.72225605  0.32664441    -0.11100
C909        C  0.47209479  0.71502181  0.34983656     0.08300
C910        C  0.45684602  0.72300650  0.46795210     0.09300
S911        S  0.41208065  0.73589040  0.42400895    -0.25400
H912        H  0.42297027  0.73408155  0.33312960     0.19600
S913        S  0.49673726  0.70770869  0.32307058    -0.31100
H914        H  0.48576612  0.70971137  0.41344249     0.09900
C915        C  0.44356906  0.69878230  0.49399518     0.03100
C916        C  0.44677193  0.70108569  0.53980751    -0.13400
C917        C  0.46304682  0.72716880  0.56015885    -0.09100
C918        C  0.47699169  0.75140628  0.53379331     0.06500
C919        C  0.47353528  0.74904071  0.48793093    -0.14100
S920        S  0.42198955  0.66505591  0.46882239    -0.31100
H921        H  0.43610991  0.68251859  0.55999511     0.10800
S922        S  0.50038578  0.78511277  0.55782966    -0.28200
H923        H  0.48404592  0.76744307  0.46734369     0.08000
H924        H  0.50487886  0.72882242  0.29118915     0.26400
H925        H  0.41419706  0.64940849  0.50799086     0.21200
H926        H  0.51022307  0.79989337  0.51808231     0.26500
H927        H  0.40963051  0.72140079  0.46323251     0.15400
loop_ 
_geom_bond_atom_site_label_1 
_geom_bond_atom_site_label_2 
_geom_bond_distance 
_geom_bond_site_symmetry_2 
_ccdc_geom_bond_type 
C1            N2   1.354       .  A
C1            N6   1.357       .  A
C1          C869   1.469       .  S
N2            C3   1.356       .  A
C3            N4   1.358       .  A
C3          C893   1.471       .  S
N4            C5   1.360       .  A
C5            N6   1.360       .  A
C5          C908   1.479       .  S
C7            N8   1.357       .  A
C7           N12   1.355       .  A
C7          C812   1.465       .  S
N8            C9   1.359       .  A
C9           N10   1.359       .  A
C9          C917   1.480       .  S
N10          C11   1.359       .  A
C11          N12   1.355       .  A
C11         C845   1.472       .  S
C13          N14   1.358       .  A
C13          N18   1.358       .  A
C13         C788   1.497       .  S
N14          C15   1.359       .  A
C15          N16   1.360       .  A
C15         C773   1.477       .  S
N16          C17   1.360       .  A
C17          N18   1.358       .  A
C17         C749   1.488       .  S
C19          N20   1.363       .  A
C19          N24   1.354       .  A
C19         C725   1.478       .  S
N20          C21   1.364       .  A
C21          N22   1.358       .  A
C21         C764   1.478       .  S
N22          C23   1.354       .  A
C23          N24   1.352       .  A
C23         C692   1.475       .  S
C25          N26   1.354       .  A
C25          N30   1.358       .  A
C25         C677   1.485       .  S
N26          C27   1.353       .  A
C27          N28   1.357       .  A
C27         C644   1.479       .  S
N28          C29   1.360       .  A
C29          N30   1.362       .  A
C29         C629   1.480       .  S
C31          N32   1.353       .  A
C31          N36   1.360       .  A
C31         C605   1.472       .  S
N32          C33   1.351       .  A
C33          N34   1.355       .  A
C33         C572   1.465       .  S
N34          C35   1.358       .  A
C35          N36   1.362       .  A
C35         C620   1.470       .  S
C37          N38   1.357       .  A
C37          N42   1.356       .  A
C37         C548   1.491       .  S
N38          C39   1.359       .  A
C39          N40   1.359       .  A
C39         C524   1.481       .  S
N40          C41   1.358       .  A
C41          N42   1.354       .  A
C41         C509   1.480       .  S
C43          N44   1.356       .  A
C43          N48   1.356       .  A
C43         C476   1.480       .  S
N44          C45   1.358       .  A
C45          N46   1.360       .  A
C45         C452   1.486       .  S
N46          C47   1.362       .  A
C47          N48   1.357       .  A
C47         C533   1.493       .  S
C49          N50   1.357       .  A
C49          N54   1.356       .  A
C49         C389   1.471       .  S
N50          C51   1.359       .  A
C51          N52   1.358       .  A
C51         C404   1.482       .  S
N52          C53   1.358       .  A
C53          N54   1.356       .  A
C53         C428   1.474       .  S
C55          N56   1.356       .  A
C55          N60   1.357       .  A
C55         C332   1.469       .  S
N56          C57   1.356       .  A
C57          N58   1.358       .  A
C57         C356   1.472       .  S
N58          C59   1.359       .  A
C59          N60   1.358       .  A
C59         C413   1.478       .  S
C61          N62   1.353       .  A
C61          N66   1.356       .  A
C61         C308   1.466       .  S
N62          C63   1.354       .  A
C63          N64   1.358       .  A
C63         C293   1.475       .  S
N64          C65   1.359       .  A
C65          N66   1.359       .  A
C65         C269   1.475       .  S
C67          N68   1.354       .  A
C67          N72   1.357       .  A
C67         C245   1.475       .  S
N68          C69   1.356       .  A
C69          N70   1.362       .  A
C69         C221   1.483       .  S
N70          C71   1.363       .  A
C71          N72   1.361       .  A
C71         C260   1.479       .  S
N73          N74   1.316       .  A
N73          N79   1.315       .  A
N73        Mn102   2.175       .  S
N74          C81   1.348       .  A
N75          N77   1.314       .  A
N75          N76   1.322       .  A
N75         Mn91   2.211       .  S
N76          C82   1.357       .  A
N77          N78   1.314       .  A
N77        Mn102   2.177       .  S
N78          C82   1.350       .  A
N79          N80   1.323       .  A
N79         Mn91   2.213       .  S
N80          C81   1.355       .  A
C81         C821   1.471       .  S
C82         C341   1.484       .  S
N83          N89   1.313   1_554  A
N83          N84   1.314       .  A
N83        Mn113   2.178       .  S
N84          C92   1.347       .  A
N85          N86   1.324   1_556  A
N85          N87   1.316   1_556  A
N85         Mn91   2.219       .  S
N86          C93   1.357       .  A
N87          N88   1.316       .  A
N87        Mn113   2.189       .  S
N88          C93   1.349       .  A
N89          N90   1.325   1_556  A
N89         Mn91   2.216       .  S
N90          C92   1.359       .  A
Mn91       Cl115   2.566       .  S
C92         C380   1.487       .  S
C93         C860   1.478       .  S
N94          N95   1.314       .  A
N94         N100   1.313       .  A
N94        Mn102   2.173       .  S
N95         C103   1.349       .  A
N96          N98   1.315       .  A
N96          N97   1.324       .  A
N96        Mn114   2.214       .  S
N97         C104   1.357       .  A
N98          N99   1.314       .  A
N98        Mn102   2.180       .  S
N99         C104   1.348       .  A
N100        N101   1.322       .  A
N100       Mn114   2.206       .  S
N101        C103   1.357       .  A
Mn102      Cl115   2.518       .  S
C103        C284   1.482       .  S
C104        C581   1.474       .  S
N105        N106   1.315       .  A
N105        N111   1.314   1_554  A
N105       Mn113   2.182       .  S
N106        C116   1.350       .  A
N107        N108   1.322   1_556  A
N107        N109   1.315   1_556  A
N107       Mn114   2.210       .  S
N108        C117   1.356       .  A
N109        N110   1.317       .  A
N109       Mn113   2.186       .  S
N110        C117   1.350       .  A
N111        N112   1.322   1_556  A
N111       Mn114   2.206       .  S
N112        C116   1.356       .  A
Mn113      Cl115   2.518   1_554  S
Mn114      Cl115   2.569       .  S
C116        C653   1.482       .  S
C117        C212   1.479       .  S
N118        N119   1.317   1_655  A
N118        N124   1.315   1_554  A
N118       Mn147   2.179       .  S
N119        C126   1.348       .  A
N120        N122   1.315   1_556  A
N120        N121   1.322   1_556  A
N120       Mn136   2.209       .  S
N121        C127   1.355       .  A
N122        N123   1.318       .  A
N122       Mn147   2.190       .  S
N123        C127   1.349       .  A
N124        N125   1.319   1_655  A
N124       Mn136   2.200       .  S
N125        C126   1.352   1_556  A
C126        C701   1.460       .  S
C127        C437   1.471       .  S
N128        N134   1.315       .  A
N128        N129   1.317       .  A
N128       Mn158   2.194       .  S
N129        C137   1.351       .  A
N130        N131   1.321   1_655  A
N130        N132   1.315       .  A
N130       Mn136   2.209       .  S
N131        C138   1.355       .  A
N132        N133   1.319   1_655  A
N132       Mn158   2.192       .  S
N133        C138   1.352       .  A
N134        N135   1.321       .  A
N134       Mn136   2.202       .  S
N135        C137   1.355       .  A
Mn136      Cl160   2.556       .  S
C137        C365   1.481       .  S
C138        C740   1.482       .  S
N139        N140   1.316       .  A
N139        N145   1.315   1_554  A
N139       Mn147   2.179       .  S
N140        C148   1.348       .  A
N141        N143   1.315   1_556  A
N141        N142   1.322   1_655  A
N141       Mn159   2.207       .  S
N142        C149   1.354   1_556  A
N143        N144   1.317   1_655  A
N143       Mn147   2.187       .  S
N144        C149   1.350       .  A
N145        N146   1.322   1_556  A
N145       Mn159   2.212       .  S
N146        C148   1.357       .  A
Mn147      Cl160   2.531   1_554  S
C148        C485   1.476       .  S
C149        C668   1.471       .  S
N150        N151   1.317   1_655  A
N150        N156   1.316       .  A
N150       Mn158   2.194       .  S
N151        C161   1.350       .  A
N152        N153   1.322       .  A
N152        N154   1.315       .  A
N152       Mn159   2.208       .  S
N153        C162   1.355       .  A
N154        N155   1.316       .  A
N154       Mn158   2.183       .  S
N155        C162   1.349       .  A
N156        N157   1.323   1_655  A
N156       Mn159   2.211       .  S
N157        C161   1.355       .  A
Mn158      Cl160   2.532       .  S
Mn159      Cl160   2.561       .  S
C161        C596   1.473       .  S
C162        C557   1.473       .  S
N163        N164   1.315       .  A
N163        N169   1.314   1_554  A
N163       Mn192   2.184       .  S
N164        C171   1.348       .  A
N165        N167   1.316   1_556  A
N165        N166   1.322   1_556  A
N165       Mn181   2.214   1_545  S
N166        C172   1.356       .  A
N167        N168   1.319       .  A
N167       Mn192   2.195   1_545  S
N168        C172   1.352       .  A
N169        N170   1.325   1_556  A
N169       Mn181   2.215       .  S
N170        C171   1.358       .  A
C171        C884   1.484       .  S
C172        C461   1.483       .  S
N173        N179   1.315       .  A
N173        N174   1.316       .  A
N173       Mn203   2.181   1_545  S
N174        C182   1.348       .  A
N175        N176   1.322       .  A
N175        N177   1.315       .  A
N175       Mn181   2.213       .  S
N176        C183   1.356       .  A
N177        N178   1.316       .  A
N177       Mn203   2.185       .  S
N178        C183   1.350       .  A
N179        N180   1.323       .  A
N179       Mn181   2.214   1_545  S
N180        C182   1.357       .  A
Mn181      Cl205   2.561       .  S
C182        C500   1.478       .  S
C183        C836   1.483       .  S
N184        N185   1.317       .  A
N184        N190   1.314   1_554  A
N184       Mn192   2.187   1_545  S
N185        C193   1.349       .  A
N186        N188   1.314   1_556  A
N186        N187   1.318       .  A
N186       Mn204   2.184       .  S
N187        C194   1.352   1_556  A
N188        N189   1.318       .  A
N188       Mn192   2.195       .  S
N189        C194   1.353       .  A
N190        N191   1.323   1_556  A
N190       Mn204   2.211   1_545  S
N191        C193   1.357       .  A
Mn192      Cl205   2.528   1_554  S
C193        C236   1.487       .  S
C194        C716   1.473       .  S
N195        N196   1.321       .  A
N195        N201   1.314       .  A
N195       Mn203   2.193       .  S
N196        C206   1.354       .  A
N197        N198   1.320       .  A
N197        N199   1.315       .  A
N197       Mn204   2.197   1_545  S
N198        C207   1.353       .  A
N199        N200   1.317       .  A
N199       Mn203   2.190   1_545  S
N200        C207   1.350       .  A
N201        N202   1.320       .  A
N201       Mn204   2.206       .  S
N202        C206   1.354       .  A
Mn203      Cl205   2.533       .  S
Mn204      Cl205   2.554       .  S
C206        C797   1.485       .  S
C207        C317   1.469       .  S
C208        C209   1.400       .  A
C208        C213   1.397       .  A
C208        H218   1.082       .  S
C209        C214   1.476       .  S
C209        C210   1.412       .  A
C210        C211   1.400       .  A
C210        S215   1.804       .  S
C211        C212   1.405       .  A
C211        H216   1.081       .  S
C212        C213   1.417       .  A
C213        S217   1.803       .  S
C214        C219   1.406       .  A
C214        C223   1.401       .  A
S215        H231   1.405       .  S
S217        H228   1.407       .  S
C219        C220   1.399       .  A
C219        S224   1.807       .  S
C220        C221   1.407       .  A
C220        H225   1.082       .  S
C221        C222   1.415       .  A
C222        C223   1.401       .  A
C222        S226   1.798       .  S
C223        H227   1.083       .  S
S224        H229   1.407       .  S
S226        H230   1.407       .  S
C232        C233   1.400       .  A
C232        C237   1.397       .  A
C232        H242   1.082       .  S
C233        C238   1.482       .  S
C233        C234   1.413       .  A
C234        C235   1.402       .  A
C234        S239   1.804       .  S
C235        C236   1.406       .  A
C235        H240   1.082       .  S
C236        C237   1.421       .  A
C237        S241   1.802       .  S
C238        C243   1.412       .  A
C238        C247   1.401       .  A
S239        H255   1.406       .  S
S241        H252   1.408       .  S
C243        C244   1.404       .  A
C243        S248   1.807       .  S
C244        C245   1.403       .  A
C244        H249   1.082       .  S
C245        C246   1.414       .  A
C246        C247   1.397       .  A
C246        S250   1.804       .  S
C247        H251   1.083       .  S
S248        H253   1.407       .  S
S250        H254   1.407       .  S
C256        C257   1.401       .  A
C256        C261   1.399       .  A
C256        H266   1.084       .  S
C257        C262   1.475       .  S
C257        C258   1.412       .  A
C258        C259   1.400       .  A
C258        S263   1.806       .  S
C259        C260   1.405       .  A
C259        H264   1.084       .  S
C260        C261   1.413       .  A
C261        S265   1.800       .  S
C262        C267   1.408       .  A
C262        C271   1.399       .  A
S263        H279   1.403       .  S
S265        H276   1.406       .  S
C267        C268   1.404       .  A
C267        S272   1.805       .  S
C268        C269   1.405       .  A
C268        H273   1.083       .  S
C269        C270   1.415       .  A
C270        C271   1.396       .  A
C270        S274   1.803       .  S
C271        H275   1.084       .  S
S272        H277   1.407       .  S
S274        H278   1.407       .  S
C280        C281   1.402       .  A
C280        C285   1.399       .  A
C280        H290   1.083       .  S
C281        C286   1.472       .  S
C281        C282   1.407       .  A
C282        C283   1.393       .  A
C282        S287   1.805       .  S
C283        C284   1.409       .  A
C283        H288   1.083       .  S
C284        C285   1.416       .  A
C285        S289   1.801       .  S
C286        C291   1.406       .  A
C286        C295   1.401       .  A
S287        H303   1.406       .  S
S289        H300   1.408       .  S
C291        C292   1.398       .  A
C291        S296   1.807       .  S
C292        C293   1.406       .  A
C292        H297   1.082       .  S
C293        C294   1.415       .  A
C294        C295   1.397       .  A
C294        S298   1.803       .  S
C295        H299   1.083       .  S
S296        H301   1.407       .  S
S298        H302   1.407       .  S
C304        C305   1.402       .  A
C304        C309   1.394       .  A
C304        H314   1.082       .  S
C305        C310   1.477       .  S
C305        C306   1.414       .  A
C306        C307   1.399       .  A
C306        S311   1.804       .  S
C307        C308   1.402       .  A
C307        H312   1.082       .  S
C308        C309   1.411       .  A
C309        S313   1.804       .  S
C310        C315   1.412       .  A
C310        C319   1.401       .  A
S311        H327   1.406       .  S
S313        H324   1.407       .  S
C315        C316   1.402       .  A
C315        S320   1.807       .  S
C316        C317   1.402       .  A
C316        H321   1.081       .  S
C317        C318   1.413       .  A
C318        C319   1.394       .  A
C318        S322   1.803       .  S
C319        H323   1.082       .  S
S320        H325   1.407       .  S
S322        H326   1.407       .  S
C328        C329   1.401       .  A
C328        C333   1.397       .  A
C328        H338   1.084       .  S
C329        C334   1.471       .  S
C329        C330   1.411       .  A
C330        C331   1.397       .  A
C330        S335   1.805       .  S
C331        C332   1.402       .  A
C331        H336   1.083       .  S
C332        C333   1.412       .  A
C333        S337   1.801       .  S
C334        C339   1.404       .  A
C334        C343   1.400       .  A
S335        H351   1.404       .  S
S337        H348   1.406       .  S
C339        C340   1.397       .  A
C339        S344   1.808       .  S
C340        C341   1.409       .  A
C340        H345   1.082       .  S
C341        C342   1.417       .  A
C342        C343   1.400       .  A
C342        S346   1.799       .  S
C343        H347   1.084       .  S
S344        H349   1.407       .  S
S346        H350   1.408       .  S
C352        C353   1.401       .  A
C352        C357   1.397       .  A
C352        H362   1.082       .  S
C353        C358   1.478       .  S
C353        C354   1.413       .  A
C354        C355   1.398       .  A
C354        S359   1.803       .  S
C355        C356   1.403       .  A
C355        H360   1.082       .  S
C356        C357   1.413       .  A
C357        S361   1.801       .  S
C358        C363   1.409       .  A
C358        C367   1.400       .  A
S359        H375   1.407       .  S
S361        H372   1.406       .  S
C363        C364   1.403       .  A
C363        S368   1.806       .  S
C364        C365   1.406       .  A
C364        H369   1.081       .  S
C365        C366   1.417       .  A
C366        C367   1.399       .  A
C366        S370   1.809       .  S
C367        H371   1.082       .  S
S368        H373   1.407       .  S
S370        H374   1.407       .  S
C376        C377   1.398       .  A
C376        C381   1.399       .  A
C376        H386   1.082       .  S
C377        C382   1.481       .  S
C377        C378   1.412       .  A
C378        C379   1.403       .  A
C378        S383   1.804       .  S
C379        C380   1.407       .  A
C379        H384   1.083       .  S
C380        C381   1.421       .  A
C381        S385   1.811       .  S
C382        C387   1.412       .  A
C382        C391   1.403       .  A
S383        H399   1.405       .  S
S385        H396   1.406       .  S
C387        C388   1.401       .  A
C387        S392   1.808       .  S
C388        C389   1.401       .  A
C388        H393   1.081       .  S
C389        C390   1.413       .  A
C390        C391   1.401       .  A
C390        S394   1.804       .  S
C391        H395   1.081       .  S
S392        H397   1.406       .  S
S394        H398   1.407       .  S
C400        C401   1.401       .  A
C400        C405   1.400       .  A
C400        H410   1.083       .  S
C401        C406   1.477       .  S
C401        C402   1.411       .  A
C402        C403   1.397       .  A
C402        S407   1.805       .  S
C403        C404   1.405       .  A
C403        H408   1.082       .  S
C404        C405   1.418       .  A
C405        S409   1.803       .  S
C406        C411   1.408       .  A
C406        C415   1.400       .  A
S407        H423   1.405       .  S
S409        H420   1.407       .  S
C411        C412   1.402       .  A
C411        S416   1.807       .  S
C412        C413   1.405       .  A
C412        H417   1.083       .  S
C413        C414   1.415       .  A
C414        C415   1.398       .  A
C414        S418   1.803       .  S
C415        H419   1.084       .  S
S416        H421   1.407       .  S
S418        H422   1.407       .  S
C424        C425   1.403       .  A
C424        C429   1.398       .  A
C424        H434   1.086       .  S
C425        C430   1.480       .  S
C425        C426   1.412       .  A
C426        C427   1.397       .  A
C426        S431   1.804       .  S
C427        C428   1.402       .  A
C427        H432   1.086       .  S
C428        C429   1.414       .  A
C429        S433   1.804       .  S
C430        C435   1.411       .  A
C430        C439   1.402       .  A
S431        H447   1.407       .  S
S433        H444   1.407       .  S
C435        C436   1.403       .  A
C435        S440   1.807       .  S
C436        C437   1.402       .  A
C436        H441   1.081       .  S
C437        C438   1.414       .  A
C438        C439   1.397       .  A
C438        S442   1.804       .  S
C439        H443   1.082       .  S
S440        H445   1.407   1_554  S
S442        H446   1.407       .  S
C448        C449   1.402       .  A
C448        C453   1.402       .  A
C448        H458   1.084       .  S
C449        C454   1.480       .  S
C449        C450   1.409       .  A
C450        C451   1.396       .  A
C450        S455   1.803       .  S
C451        C452   1.407       .  A
C451        H456   1.083       .  S
C452        C453   1.418       .  A
C453        S457   1.802       .  S
C454        C459   1.408       .  A
C454        C463   1.401       .  A
S455        H471   1.406       .  S
S457        H468   1.407       .  S
C459        C460   1.403       .  A
C459        S464   1.806       .  S
C460        C461   1.406       .  A
C460        H465   1.081       .  S
C461        C462   1.418       .  A
C462        C463   1.400       .  A
C462        S466   1.803       .  S
C463        H467   1.082       .  S
S464        H469   1.407       .  S
S466        H470   1.407       .  S
C472        C473   1.399       .  A
C472        C477   1.398       .  A
C472        H482   1.087       .  S
C473        C478   1.474       .  S
C473        C474   1.410       .  A
C474        C475   1.397       .  A
C474        S479   1.804       .  S
C475        C476   1.405       .  A
C475        H480   1.086       .  S
C476        C477   1.417       .  A
C477        S481   1.802       .  S
C478        C483   1.408       .  A
C478        C487   1.400       .  A
S479        H495   1.406       .  S
S481        H492   1.407       .  S
C483        C484   1.401       .  A
C483        S488   1.806       .  S
C484        C485   1.404       .  A
C484        H489   1.080       .  S
C485        C486   1.418       .  A
C486        C487   1.398       .  A
C486        S490   1.805       .  S
C487        H491   1.081       .  S
S488        H493   1.407       .  S
S490        H494   1.407       .  S
C496        C497   1.400       .  A
C496        C501   1.400       .  A
C496        H506   1.081       .  S
C497        C502   1.475       .  S
C497        C498   1.412       .  A
C498        C499   1.400       .  A
C498        S503   1.804       .  S
C499        C500   1.404       .  A
C499        H504   1.082       .  S
C500        C501   1.417       .  A
C501        S505   1.811       .  S
C502        C507   1.408       .  A
C502        C511   1.399       .  A
S503        H519   1.405       .  S
S505        H516   1.407       .  S
C507        C508   1.402       .  A
C507        S512   1.806       .  S
C508        C509   1.406       .  A
C508        H513   1.082       .  S
C509        C510   1.418       .  A
C510        C511   1.396       .  A
C510        S514   1.804       .  S
C511        H515   1.084       .  S
S512        H517   1.407       .  S
S514        H518   1.407       .  S
C520        C521   1.402       .  A
C520        C525   1.400       .  A
C520        H530   1.082       .  S
C521        C526   1.481       .  S
C521        C522   1.411       .  A
C522        C523   1.398       .  A
C522        S527   1.804       .  S
C523        C524   1.406       .  A
C523        H528   1.082       .  S
C524        C525   1.417       .  A
C525        S529   1.803       .  S
C526        C531   1.406       .  A
C526        C535   1.399       .  A
S527        H543   1.406       .  S
S529        H540   1.407       .  S
C531        C532   1.402       .  A
C531        S536   1.806       .  S
C532        C533   1.409       .  A
C532        H537   1.081       .  S
C533        C534   1.424       .  A
C534        C535   1.403       .  A
C534        S538   1.811       .  S
C535        H539   1.083       .  S
S536        H541   1.407       .  S
S538        H542   1.406       .  S
C544        C545   1.401       .  A
C544        C549   1.399       .  A
C544        H554   1.084       .  S
C545        C550   1.476       .  S
C545        C546   1.409       .  A
C546        C547   1.395       .  A
C546        S551   1.806       .  S
C547        C548   1.410       .  A
C547        H552   1.083       .  S
C548        C549   1.421       .  A
C549        S553   1.802       .  S
C550        C555   1.410       .  A
C550        C559   1.400       .  A
S551        H567   1.405       .  S
S553        H564   1.408       .  S
C555        C556   1.404       .  A
C555        S560   1.806       .  S
C556        C557   1.405       .  A
C556        H561   1.082       .  S
C557        C558   1.414       .  A
C558        C559   1.394       .  A
C558        S562   1.804       .  S
C559        H563   1.083       .  S
S560        H565   1.407       .  S
S562        H566   1.407       .  S
C568        C569   1.405       .  A
C568        C573   1.398       .  A
C568        H578   1.084       .  S
C569        C574   1.476       .  S
C569        C570   1.410       .  A
C570        C571   1.395       .  A
C570        S575   1.804       .  S
C571        C572   1.402       .  A
C571        H576   1.084       .  S
C572        C573   1.410       .  A
C573        S577   1.804       .  S
C574        C579   1.406       .  A
C574        C583   1.405       .  A
S575        H591   1.406       .  S
S577        H588   1.406       .  S
C579        C580   1.396       .  A
C579        S584   1.808       .  S
C580        C581   1.405       .  A
C580        H585   1.083       .  S
C581        C582   1.413       .  A
C582        C583   1.401       .  A
C582        S586   1.802       .  S
C583        H587   1.084       .  S
S584        H589   1.407       .  S
S586        H590   1.407       .  S
C592        C593   1.400       .  A
C592        C597   1.396       .  A
C592        H602   1.084       .  S
C593        C598   1.478       .  S
C593        C594   1.415       .  A
C594        C595   1.401       .  A
C594        S599   1.805       .  S
C595        C596   1.402       .  A
C595        H600   1.083       .  S
C596        C597   1.414       .  A
C597        S601   1.803       .  S
C598        C603   1.408       .  A
C598        C607   1.404       .  A
S599        H615   1.405       .  S
S601        H612   1.407       .  S
C603        C604   1.399       .  A
C603        S608   1.807       .  S
C604        C605   1.405       .  A
C604        H609   1.083       .  S
C605        C606   1.411       .  A
C606        C607   1.400       .  A
C606        S610   1.802       .  S
C607        H611   1.083       .  S
S608        H613   1.407       .  S
S610        H614   1.407       .  S
C616        C617   1.403       .  A
C616        C621   1.401       .  A
C616        H626   1.083       .  S
C617        C622   1.473       .  S
C617        C618   1.411       .  A
C618        C619   1.396       .  A
C618        S623   1.806       .  S
C619        C620   1.402       .  A
C619        H624   1.083       .  S
C620        C621   1.411       .  A
C621        S625   1.803       .  S
C622        C627   1.406       .  A
C622        C631   1.400       .  A
S623        H639   1.403       .  S
S625        H636   1.406       .  S
C627        C628   1.400       .  A
C627        S632   1.807       .  S
C628        C629   1.406       .  A
C628        H633   1.081       .  S
C629        C630   1.418       .  A
C630        C631   1.399       .  A
C630        S634   1.803       .  S
C631        H635   1.083       .  S
S632        H637   1.407       .  S
S634        H638   1.407       .  S
C640        C641   1.403       .  A
C640        C645   1.400       .  A
C640        H650   1.083       .  S
C641        C646   1.473       .  S
C641        C642   1.409       .  A
C642        C643   1.394       .  A
C642        S647   1.807       .  S
C643        C644   1.407       .  A
C643        H648   1.083       .  S
C644        C645   1.415       .  A
C645        S649   1.802       .  S
C646        C651   1.405       .  A
C646        C655   1.401       .  A
S647        H663   1.404       .  S
S649        H660   1.407       .  S
C651        C652   1.398       .  A
C651        S656   1.807       .  S
C652        C653   1.408       .  A
C652        H657   1.082       .  S
C653        C654   1.416       .  A
C654        C655   1.399       .  A
C654        S658   1.798       .  S
C655        H659   1.084       .  S
S656        H661   1.407       .  S
S658        H662   1.407   1_554  S
C664        C665   1.400       .  A
C664        C669   1.396       .  A
C664        H674   1.084       .  S
C665        C670   1.475       .  S
C665        C666   1.412       .  A
C666        C667   1.401       .  A
C666        S671   1.805       .  S
C667        C668   1.403       .  A
C667        H672   1.084       .  S
C668        C669   1.412       .  A
C669        S673   1.804       .  S
C670        C675   1.404       .  A
C670        C679   1.401       .  A
S671        H687   1.405       .  S
S673        H684   1.407       .  S
C675        C676   1.397       .  A
C675        S680   1.808       .  S
C676        C677   1.408       .  A
C676        H681   1.083       .  S
C677        C678   1.418       .  A
C678        C679   1.402       .  A
C678        S682   1.801       .  S
C679        H683   1.084       .  S
S680        H685   1.407       .  S
S682        H686   1.407       .  S
C688        C689   1.401       .  A
C688        C693   1.396       .  A
C688        H698   1.084       .  S
C689        C694   1.470       .  S
C689        C690   1.409       .  A
C690        C691   1.395       .  A
C690        S695   1.805       .  S
C691        C692   1.406       .  A
C691        H696   1.083       .  S
C692        C693   1.415       .  A
C693        S697   1.802       .  S
C694        C699   1.409       .  A
C694        C703   1.400       .  A
S695        H711   1.405       .  S
S697        H708   1.407       .  S
C699        C700   1.399       .  A
C699        S704   1.807       .  S
C700        C701   1.400       .  A
C700        H705   1.083       .  S
C701        C702   1.411       .  A
C702        C703   1.395       .  A
C702        S706   1.803       .  S
C703        H707   1.084       .  S
S704        H709   1.407       .  S
S706        H710   1.407   1_455  S
C712        C713   1.401       .  A
C712        C717   1.396       .  A
C712        H722   1.084       .  S
C713        C718   1.473       .  S
C713        C714   1.410       .  A
C714        C715   1.395       .  A
C714        S719   1.804       .  S
C715        C716   1.405       .  A
C715        H720   1.083       .  S
C716        C717   1.414       .  A
C717        S721   1.804       .  S
C718        C723   1.405       .  A
C718        C727   1.401       .  A
S719        H735   1.406       .  S
S721        H732   1.408       .  S
C723        C724   1.399       .  A
C723        S728   1.808       .  S
C724        C725   1.408       .  A
C724        H729   1.083       .  S
C725        C726   1.413       .  A
C726        C727   1.398       .  A
C726        S730   1.798       .  S
C727        H731   1.084       .  S
S728        H733   1.407       .  S
S730        H734   1.407       .  S
C736        C737   1.402       .  A
C736        C741   1.400       .  A
C736        H746   1.083       .  S
C737        C742   1.480       .  S
C737        C738   1.411       .  A
C738        C739   1.398       .  A
C738        S743   1.804       .  S
C739        C740   1.405       .  A
C739        H744   1.083       .  S
C740        C741   1.417       .  A
C741        S745   1.803       .  S
C742        C747   1.407       .  A
C742        C751   1.401       .  A
S743        H759   1.406       .  S
S745        H756   1.407       .  S
C747        C748   1.402       .  A
C747        S752   1.807       .  S
C748        C749   1.409       .  A
C748        H753   1.082       .  S
C749        C750   1.417       .  A
C750        C751   1.400       .  A
C750        S754   1.798       .  S
C751        H755   1.084       .  S
S752        H757   1.407       .  S
S754        H758   1.407       .  S
C760        C761   1.403       .  A
C760        C765   1.402       .  A
C760        H770   1.084       .  S
C761        C766   1.480       .  S
C761        C762   1.411       .  A
C762        C763   1.397       .  A
C762        S767   1.805       .  S
C763        C764   1.404       .  A
C763        H768   1.083       .  S
C764        C765   1.413       .  A
C765        S769   1.800       .  S
C766        C771   1.410       .  A
C766        C775   1.402       .  A
S767        H783   1.405       .  S
S769        H780   1.406       .  S
C771        C772   1.402       .  A
C771        S776   1.807       .  S
C772        C773   1.403       .  A
C772        H777   1.083       .  S
C773        C774   1.411       .  A
C774        C775   1.404       .  A
C774        S778   1.804       .  S
C775        H779   1.083       .  S
S776        H781   1.407       .  S
S778        H782   1.407       .  S
C784        C785   1.402       .  A
C784        C789   1.401       .  A
C784        H794   1.083       .  S
C785        C790   1.486       .  S
C785        C786   1.410       .  A
C786        C787   1.398       .  A
C786        S791   1.805       .  S
C787        C788   1.411       .  A
C787        H792   1.082       .  S
C788        C789   1.422       .  A
C789        S793   1.801       .  S
C790        C795   1.411       .  A
C790        C799   1.401       .  A
S791        H807   1.406       .  S
S793        H804   1.408       .  S
C795        C796   1.405       .  A
C795        S800   1.807       .  S
C796        C797   1.407       .  A
C796        H801   1.082       .  S
C797        C798   1.417       .  A
C798        C799   1.398       .  A
C798        S802   1.801       .  S
C799        H803   1.083       .  S
S800        H805   1.406       .  S
S802        H806   1.407       .  S
C808        C809   1.403       .  A
C808        C813   1.397       .  A
C808        H818   1.084       .  S
C809        C814   1.476       .  S
C809        C810   1.412       .  A
C810        C811   1.397       .  A
C810        S815   1.804       .  S
C811        C812   1.401       .  A
C811        H816   1.084       .  S
C812        C813   1.410       .  A
C813        S817   1.803       .  S
C814        C819   1.411       .  A
C814        C823   1.400       .  A
S815        H831   1.406       .  S
S817        H828   1.406       .  S
C819        C820   1.403       .  A
C819        S824   1.806       .  S
C820        C821   1.402       .  A
C820        H825   1.080       .  S
C821        C822   1.415       .  A
C822        C823   1.395       .  A
C822        S826   1.804       .  S
C823        H827   1.082       .  S
S824        H829   1.407       .  S
S826        H830   1.407       .  S
C832        C833   1.401       .  A
C832        C837   1.400       .  A
C832        H842   1.083       .  S
C833        C838   1.473       .  S
C833        C834   1.409       .  A
C834        C835   1.396       .  A
C834        S839   1.806       .  S
C835        C836   1.408       .  A
C835        H840   1.083       .  S
C836        C837   1.417       .  A
C837        S841   1.800       .  S
C838        C843   1.408       .  A
C838        C847   1.400       .  A
S839        H855   1.404       .  S
S841        H852   1.407       .  S
C843        C844   1.401       .  A
C843        S848   1.806       .  S
C844        C845   1.403       .  A
C844        H849   1.082       .  S
C845        C846   1.414       .  A
C846        C847   1.397       .  A
C846        S850   1.802       .  S
C847        H851   1.083       .  S
S848        H853   1.407       .  S
S850        H854   1.406       .  S
C856        C857   1.401       .  A
C856        C861   1.395       .  A
C856        H866   1.082       .  S
C857        C862   1.483       .  S
C857        C858   1.415       .  A
C858        C859   1.404       .  A
C858        S863   1.803       .  S
C859        C860   1.404       .  A
C859        H864   1.082       .  S
C860        C861   1.415       .  A
C861        S865   1.803       .  S
C862        C867   1.413       .  A
C862        C871   1.402       .  A
S863        H879   1.406       .  S
S865        H876   1.407       .  S
C867        C868   1.403       .  A
C867        S872   1.806       .  S
C868        C869   1.400       .  A
C868        H873   1.083       .  S
C869        C870   1.412       .  A
C870        C871   1.398       .  A
C870        S874   1.804       .  S
C871        H875   1.084       .  S
S872        H877   1.407       .  S
S874        H878   1.406       .  S
C880        C881   1.399       .  A
C880        C885   1.399       .  A
C880        H890   1.082       .  S
C881        C886   1.481       .  S
C881        C882   1.413       .  A
C882        C883   1.402       .  A
C882        S887   1.804       .  S
C883        C884   1.405       .  A
C883        H888   1.083       .  S
C884        C885   1.419       .  A
C885        S889   1.810       .  S
C886        C891   1.412       .  A
C886        C895   1.403       .  A
S887        H903   1.406       .  S
S889        H900   1.407       .  S
C891        C892   1.402       .  A
C891        S896   1.807       .  S
C892        C893   1.402       .  A
C892        H897   1.079       .  S
C893        C894   1.412       .  A
C894        C895   1.399       .  A
C894        S898   1.804       .  S
C895        H899   1.080       .  S
S896        H901   1.407       .  S
S898        H902   1.407       .  S
C904        C905   1.401       .  A
C904        C909   1.398       .  A
C904        H914   1.082       .  S
C905        C910   1.477       .  S
C905        C906   1.411       .  A
C906        C907   1.401       .  A
C906        S911   1.805       .  S
C907        C908   1.405       .  A
C907        H912   1.082       .  S
C908        C909   1.416       .  A
C909        S913   1.803       .  S
C910        C915   1.406       .  A
C910        C919   1.402       .  A
S911        H927   1.404       .  S
S913        H924   1.407       .  S
C915        C916   1.401       .  A
C915        S920   1.806       .  S
C916        C917   1.405       .  A
C916        H921   1.083       .  S
C917        C918   1.414       .  A
C918        C919   1.404       .  A
C918        S922   1.808       .  S
C919        H923   1.083       .  S
S920        H925   1.407       .  S
S922        H926   1.407       .  S
