geometry optimzed in LAMMPS
_audit_creation_date              2020-12-01 
_audit_creation_method            'lammps2cif' 
_symmetry_space_group_name_H-M    'P1' 
_symmetry_Int_Tables_number       1 
_symmetry_cell_setting            triclinic 
loop_ 
_symmetry_equiv_pos_as_xyz 
  x,y,z 
_cell_length_a                    33.30213051 
_cell_length_b                    36.140712831644294 
_cell_length_c                    35.28134652732041 
_cell_angle_alpha                 90.426681415078 
_cell_angle_beta                  89.56518970022017 
_cell_angle_gamma                 79.87659136123939 
loop_ 
_atom_site_label 
_atom_site_type_symbol 
_atom_site_fract_x 
_atom_site_fract_y 
_atom_site_fract_z 
_atom_site_charge 
C1          C  0.45887896  0.44132266  0.34754360     0.85400
C2          C  0.47478114  0.46610056  0.31831683    -0.54800
C3          C  0.46126137  0.46114116  0.28219516     0.08300
C4          C  0.43474678  0.42925583  0.27920181     0.19300
C5          C  0.41196627  0.44969814  0.34212792    -0.55600
C6          C  0.39915097  0.44306561  0.30676381     0.08400
C7          C  0.47275046  0.40124625  0.33373093    -0.55100
C8          C  0.46032984  0.39405836  0.29839978     0.09000
H9          H  0.49288295  0.48693815  0.32638020     0.13500
H10         H  0.42407455  0.42313987  0.25058776    -0.00700
H11         H  0.39055783  0.46130206  0.36427831     0.13800
H12         H  0.48854195  0.37927831  0.35190738     0.13600
C13         C  0.21759340  0.26046609  0.34917108     0.85400
C14         C  0.20318987  0.23460352  0.31990615    -0.54800
C15         C  0.21741846  0.23920257  0.28387356     0.08300
C16         C  0.24306775  0.27182841  0.28104275     0.19300
C17         C  0.26460438  0.25300554  0.34402863    -0.55600
C18         C  0.27821759  0.25922369  0.30882001     0.08400
C19         C  0.20291299  0.30012238  0.33531198    -0.55100
C20         C  0.21602164  0.30705001  0.30007096     0.09000
H21         H  0.18546849  0.21342814  0.32781585     0.13500
H22         H  0.25433113  0.27765210  0.25251017    -0.00700
H23         H  0.28553809  0.24182394  0.36619541     0.13800
H24         H  0.18606565  0.32208439  0.35343224     0.13600
C25         C  0.43263780  0.30606162  0.49448594     0.85400
C26         C  0.39020606  0.29922540  0.50627136    -0.54800
C27         C  0.38400087  0.26375741  0.49772937     0.08300
C28         C  0.42010965  0.23912906  0.47690484     0.19300
C29         C  0.46341853  0.27436352  0.01145119    -0.55600
C30         C  0.45583011  0.23906472  0.00402173     0.08400
C31         C  0.43674061  0.29719522  0.45225640    -0.55100
C32         C  0.43052490  0.26243591  0.44243713     0.09000
H33         H  0.36914643  0.32012026  0.02070868     0.13500
H34         H  0.41367140  0.21126673  0.46837276    -0.00700
H35         H  0.48671252  0.28010613  0.03068963     0.13800
H36         H  0.44527056  0.31673933  0.43163901     0.13600
C37         C  0.24373750  0.39469359  0.49521869     0.85400
C38         C  0.28588285  0.40175469  0.50751925    -0.54800
C39         C  0.29255082  0.43702842  0.49905270     0.08300
C40         C  0.25703733  0.46122839  0.47789534     0.19300
C41         C  0.21442700  0.42716811  0.01420644    -0.55600
C42         C  0.22224314  0.46223302  0.00656464     0.08400
C43         C  0.24116160  0.40268429  0.45284687    -0.55100
C44         C  0.24810605  0.43709192  0.44298033     0.09000
H45         H  0.30845623  0.38143667  0.02316338     0.13500
H46         H  0.26352387  0.48907415  0.46961900    -0.00700
H47         H  0.19104452  0.42193589  0.03387040     0.13800
H48         H  0.23330236  0.38272533  0.43215496     0.13600
C49         C  0.46762051  0.00774709  0.18537497     0.85400
C50         C  0.45120699  0.04726987  0.19920527    -0.54800
C51         C  0.46360262  0.05524721  0.23415706     0.08300
C52         C  0.49035590  0.02077533  0.25365715     0.19300
C53         C  0.01386115  0.50207890  0.19026103    -0.55600
C54         C  0.02705148  0.00872874  0.22543935     0.08400
C55         C  0.45478542  0.48180332  0.21438197    -0.55100
C56         C  0.46732614  0.48722321  0.25065897     0.09000
H57         H  0.43498811  0.06880106  0.18075705     0.13500
H58         H  0.00223257  0.02591033  0.28224966    -0.00700
H59         H  0.03552832  0.49325704  0.16794331     0.13800
H60         H  0.43856989  0.45969099  0.20590463     0.13600
C61         C  0.99497122  0.13839681  0.03991310     0.85400
C62         C  0.46658397  0.17037873  0.01999204    -0.54800
C63         C  0.47561515  0.20552098  0.02572871     0.08300
C64         C  0.01188228  0.20475232  0.05343043     0.19300
C65         C  0.03759793  0.14272554  0.02624659    -0.55600
C66         C  0.04616315  0.17784449  0.03217929     0.08400
C67         C  0.49150011  0.15045305  0.08250293    -0.55100
C68         C  0.00150076  0.18357680  0.08986299     0.09000
H69         H  0.44113999  0.16499690  0.50244793     0.13500
H70         H  0.02040102  0.23228462  0.06010070    -0.00700
H71         H  0.05880884  0.12022569  0.01280243     0.13800
H72         H  0.48209015  0.13266538  0.10440973     0.13600
C73         C  0.18226077  0.06313941  0.04283600     0.85400
C74         C  0.21202877  0.03097318  0.02383642    -0.54800
C75         C  0.20251798  0.49620486  0.02875870     0.08300
C76         C  0.16543142  0.49726822  0.05604113     0.19300
C77         C  0.14029897  0.05837108  0.02807210    -0.55600
C78         C  0.13153378  0.02326920  0.03350923     0.08400
C79         C  0.18230677  0.05345107  0.08484047    -0.55100
C80         C  0.17353761  0.01920103  0.09289596     0.09000
H81         H  0.23709892  0.03531154  0.50553373     0.13500
H82         H  0.15658186  0.46990665  0.06255212    -0.00700
H83         H  0.11973589  0.08057604  0.01414298     0.13800
H84         H  0.19063356  0.07197057  0.10674838     0.13600
C85         C  0.21136616  0.19178135  0.18680313     0.85400
C86         C  0.22869016  0.15254526  0.19996771    -0.54800
C87         C  0.21641851  0.14446821  0.23502904     0.08300
C88         C  0.18874543  0.17855914  0.25528497     0.19300
C89         C  0.16482819  0.19644667  0.19281128    -0.55600
C90         C  0.15268454  0.18981340  0.22842737     0.08400
C91         C  0.22494544  0.21826160  0.21588994    -0.55100
C92         C  0.21235194  0.21255948  0.25215576     0.09000
H93         H  0.24521310  0.13115558  0.18099373     0.13500
H94         H  0.17900364  0.17189127  0.28412739    -0.00700
H95         H  0.14285648  0.20542736  0.17113022     0.13800
H96         H  0.24091914  0.24059100  0.20768792     0.13600
Zr97       Zr  0.42028918  0.43845620  0.47426471     2.17500
O98         O  0.37235742  0.41500482  0.43186375    -0.52400
O99         O  0.42030679  0.37173511  0.48291598    -0.75600
O100        O  0.44389989  0.43322562  0.41048774    -0.82400
O101        O  0.34449373  0.44778474  0.04481485    -0.84200
O102        O  0.49953779  0.46019915  0.39982942    -0.79800
O103        O  0.34952812  0.46353260  0.48338221    -0.91400
O104        O  0.47012448  0.34858158  0.02308372    -0.77400
O105        O  0.49212212  0.41879723  0.47998037    -0.86900
O106        O  0.42875956  0.41972269  0.03783476    -0.86600
O107        O  0.45070087  0.49161931  0.45566377    -0.73300
O108        O  0.39180466  0.49385569  0.00892898    -0.85400
Zr109      Zr  0.00143039  0.00794854  0.06203553     2.26400
Zr110      Zr  0.02348709  0.47316002  0.46303382     2.06300
Zr111      Zr  0.40113316  0.47475678  0.07333947     2.10000
Zr112      Zr  0.50065083  0.40092016  0.04280144     1.78800
O113        O  0.34847280  0.02568348  0.09600925    -0.94300
O114        O  0.05026105  0.35237160  0.01328756    -0.42100
O115        O  0.47292548  0.45478822  0.08015530    -0.78700
O116        O  0.03343383  0.45229025  0.02786748    -0.97400
O117        O  0.49538684  0.02703962  0.99863885    -0.90700
O118        O  0.43111560  0.02818924  0.05641941    -0.93500
C119        C  0.44057243  0.34478754  0.50203122     1.00200
C120        C  0.33109816  0.45073868  0.01056156     1.13200
C121        C  0.46928579  0.44508199  0.38853303     1.03900
O122        O  0.07801860  0.42359643  0.44096606    -0.95700
O123        O  0.08417250  0.49522548  0.49335471    -0.91400
O124        O  0.06480836  0.02537345  0.05014660    -0.84600
C125        C  0.09110721  0.01412505  0.02457297     1.10600
O126        O  0.36058428  0.05746434  0.45662855    -0.97700
Zr127      Zr  0.42423799  0.04599211  0.99175744     1.88900
O128        O  0.00024758  0.07457892  0.05785196    -0.74300
O129        O  0.04563142  0.02044392  0.42220175    -0.53600
O130        O  0.42937104  0.07283535  0.42977789    -0.98200
O131        O  0.37942796  0.09872378  0.02191971    -0.55500
O132        O  0.46049727  0.09544151  0.00930458    -0.74800
C133        C  0.48545130  0.10025055  0.03545605     0.97500
O134        O  0.05687546  0.48082504  0.10524016    -0.63600
O135        O  0.37763177  0.43838698  0.12423706    -0.58400
O136        O  0.47399755  0.02450547  0.12271007    -0.95100
O137        O  0.43394859  0.48242762  0.13440681    -0.93600
O138        O  0.49166123  0.36803696  0.10141278    -0.93900
O139        O  0.05827646  0.38676428  0.08684301    -0.92700
C140        C  0.45729555  0.00392519  0.14487170     1.16400
H141        H  0.41373314  0.40036220  0.04522577     0.32300
H142        H  0.06209303  0.44554099  0.03341568     0.43200
H143        H  0.42152886  0.04914843  0.07319584     0.36700
H144        H  0.44360012  0.99963685  0.42921943     0.33200
H145        H  0.04605832  0.32815580  0.02414613     0.25000
H146        H  0.05167918  0.00770396  0.39735066     0.30900
H147        H  0.45678541  0.07986094  0.42916190     0.36800
H148        H  0.46695607  0.38287827  0.11342997     0.31300
H149        H  0.36245642  0.45743849  0.14177077     0.30100
H150        H  0.35346285  0.02690441  0.12358752     0.31800
H151        H  0.38095794  0.12045770  0.00539401     0.30800
H152        H  0.08192805  0.39260250  0.07241904     0.34800
H153        H  0.04794394  0.45789304  0.11485265     0.27500
H154        H  0.38842407  0.39546885  0.41534090     0.31800
H155        H  0.36144532  0.03526477  0.43982394     0.34600
H156        H  0.35666915  0.42543411  0.11304922     0.27200
H157        H  0.08156454  0.47077531  0.09010053     0.40100
H158        H  0.09084867  0.41245179  0.46443394     0.30100
H159        H  0.03258093  0.35029668  0.48362856     0.37800
H160        H  0.39264902  0.10462330  0.04569938     0.29600
H161        H  0.02059048  0.03912654  0.41787775     0.29700
H162        H  0.36169059  0.43593396  0.41475398     0.29900
Zr163      Zr  0.01441988  0.17031646  0.22705620     2.17500
O164        O  0.05962175  0.11839110  0.19547389    -0.52400
O165        O  0.00817851  0.17405184  0.15687181    -0.75600
O166        O  0.49578368  0.10847329  0.23450360    -0.82400
O167        O  0.09411070  0.23248095  0.24892804    -0.84200
O168        O  0.42854746  0.11611475  0.25139171    -0.79800
O169        O  0.08730247  0.17265250  0.23324871    -0.91400
O170        O  0.47325819  0.23198886  0.13674599    -0.77400
O171        O  0.44384389  0.19173091  0.21092967    -0.86900
O172        O  0.00947016  0.23491645  0.21076778    -0.86600
O173        O  0.47536693  0.16214850  0.28349931    -0.73300
O174        O  0.03439640  0.20206683  0.28251354    -0.85400
Zr175      Zr  0.41774611  0.27822288  0.30662149     2.26400
Zr176      Zr  0.40519388  0.18293467  0.26718559     2.06300
Zr177      Zr  0.02657353  0.26723082  0.26636432     2.10000
Zr178      Zr  0.43880824  0.25657694  0.19533782     1.78800
O179        O  0.07290481  0.28299158  0.31459277    -0.94300
O180        O  0.38639433  0.23706092  0.15594463    -0.42100
O181        O  0.45676441  0.28778905  0.25105521    -0.78700
O182        O  0.39765586  0.24812502  0.25008023    -0.97400
O183        O  0.42435861  0.21374391  0.32281125    -0.90700
O184        O  0.48780901  0.25873655  0.32265013    -0.93500
C185        C  0.99621268  0.19761835  0.13012820     1.00200
C186        C  0.10877644  0.19848481  0.23876108     1.13200
C187        C  0.46293483  0.09557038  0.24195151     1.03900
O188        O  0.35888488  0.16536495  0.21989797    -0.95700
O189        O  0.33706891  0.21708073  0.28615702    -0.91400
O190        O  0.34449511  0.27529729  0.30709059    -0.84600
C191        C  0.32260887  0.25018231  0.29941199     1.10600
O192        O  0.05064546  0.14194503  0.34575870    -0.97700
Zr193      Zr  0.49454509  0.19378328  0.33781065     1.88900
O194        O  0.42376026  0.27330278  0.37623614    -0.74300
O195        O  0.37927702  0.14753688  0.31752059    -0.53600
O196        O  0.47377973  0.14046695  0.36966940    -0.98200
O197        O  0.04629194  0.21257236  0.37863215    -0.55500
O198        O  0.45934606  0.21764570  0.39567734    -0.74800
C199        C  0.43739195  0.24973938  0.40232444     0.97500
O200        O  0.38458916  0.33441225  0.34072879    -0.63600
O201        O  0.05622857  0.30315330  0.21880045    -0.58400
O202        O  0.43043005  0.34026275  0.28774035    -0.95100
O203        O  0.49948534  0.33373233  0.28379854    -0.93600
O204        O  0.45865760  0.31276172  0.16873242    -0.93900
O205        O  0.38308047  0.30783527  0.18142846    -0.92700
C206        C  0.46353930  0.35390207  0.28745392     1.16400
H207        H  0.02795742  0.23803302  0.19027230     0.32300
H208        H  0.37007660  0.25816619  0.24274844     0.43200
H209        H  0.49535329  0.27339406  0.34358846     0.36700
H210        H  0.48009835  0.13685779  0.29295746     0.33200
H211        H  0.39990518  0.21398275  0.14256206     0.25000
H212        H  0.36267168  0.13127564  0.30437603     0.30900
H213        H  0.48739936  0.13919262  0.39460238     0.36800
H214        H  0.48800599  0.30533217  0.16245062     0.31300
H215        H  0.03276551  0.32022039  0.20785042     0.30100
H216        H  0.08825298  0.25846617  0.32295174     0.31800
H217        H  0.04662377  0.19638682  0.40119796     0.30800
H218        H  0.37518824  0.31990498  0.20631273     0.34800
H219        H  0.36658943  0.32537664  0.35971761     0.27500
H220        H  0.07684061  0.13014471  0.17782163     0.31800
H221        H  0.06776340  0.14196106  0.32269463     0.34600
H222        H  0.07097998  0.31986378  0.23354778     0.27200
H223        H  0.40605849  0.34300392  0.35608402     0.40100
H224        H  0.33608142  0.15824510  0.23470820     0.30100
H225        H  0.36741674  0.22818916  0.17408295     0.37800
H226        H  0.03480422  0.23807154  0.38820968     0.29600
H227        H  0.40348372  0.12999234  0.32653926     0.29700
H228        H  0.04212918  0.10620300  0.17855144     0.29900
Zr229      Zr  0.25652318  0.26238905  0.47474144     2.17500
O230        O  0.30527846  0.28545844  0.43255768    -0.52400
O231        O  0.25646366  0.32896985  0.48386413    -0.75600
O232        O  0.23089417  0.27023532  0.41210558    -0.82400
O233        O  0.33397713  0.25290397  0.04336681    -0.84200
O234        O  0.17770323  0.24017237  0.40117822    -0.79800
O235        O  0.32716594  0.23717118  0.48258455    -0.91400
O236        O  0.20793364  0.35289409  0.02685474    -0.77400
O237        O  0.18464500  0.28118464  0.48149036    -0.86900
O238        O  0.24814266  0.28212599  0.03884247    -0.86600
O239        O  0.22765728  0.20845948  0.45549879    -0.73300
O240        O  0.28627508  0.20785919  0.00931321    -0.85400
Zr241      Zr  0.17547381  0.19425575  0.06352703     2.26400
Zr242      Zr  0.15487498  0.22681933  0.46539505     2.06700
Zr243      Zr  0.27652834  0.22812585  0.07380382     2.10000
Zr244      Zr  0.17621333  0.30063410  0.04483613     1.78800
O245        O  0.33160165  0.18108965  0.09789002    -0.94300
O246        O  0.13024659  0.34708368  0.00890502    -0.42100
O247        O  0.20438556  0.24745387  0.08189107    -0.78700
O248        O  0.14451078  0.24799410  0.02869110    -0.97400
O249        O  0.18751176  0.17950588  0.00179124    -0.90700
O250        O  0.24731444  0.17387683  0.05811129    -0.93500
C251        C  0.23556001  0.35609949  0.50288872     1.00200
C252        C  0.34700479  0.25046766  0.00872621     1.13200
C253        C  0.20675619  0.25691907  0.39008201     1.03900
O254        O  0.09857236  0.27484559  0.44525376    -0.95700
O255        O  0.09466182  0.20330094  0.49461794    -0.91400
O256        O  0.11227995  0.17637379  0.05038828    -0.84600
C257        C  0.08679506  0.18681425  0.02439050     1.10600
O258        O  0.31911931  0.14406299  0.45837792    -0.97700
Zr259      Zr  0.25432189  0.15504864  0.49268107     1.88900
O260        O  0.17487096  0.12785890  0.05923211    -0.74300
O261        O  0.13618496  0.18152471  0.42022855    -0.53600
O262        O  0.24610512  0.12540162  0.43162723    -0.98200
O263        O  0.29966697  0.10268454  0.02226712    -0.55500
O264        O  0.21848972  0.10561744  0.01137575    -0.74800
C265        C  0.19230871  0.10153131  0.03707267     0.97500
O266        O  0.12152450  0.21960806  0.10857868    -0.63600
O267        O  0.29816138  0.27305762  0.11794519    -0.58400
O268        O  0.20401926  0.17655945  0.12347560    -0.95100
O269        O  0.24563803  0.21838770  0.13557523    -0.93600
O270        O  0.18146244  0.33244236  0.10517297    -0.93900
O271        O  0.11547668  0.31523033  0.08490139    -0.92700
C272        C  0.22151655  0.19617313  0.14610891     1.16400
H273        H  0.26321349  0.30144012  0.04632200     0.32300
H274        H  0.11570978  0.25428265  0.03417653     0.43200
H275        H  0.25706849  0.15315371  0.07466538     0.36700
H276        H  0.23533671  0.20070518  0.42986354     0.33200
H277        H  0.13023319  0.37135039  0.02211863     0.25000
H278        H  0.16225923  0.16997504  0.40792189     0.30900
H279        H  0.26289363  0.09998816  0.43342355     0.36800
H280        H  0.21100197  0.32767085  0.11077304     0.31300
H281        H  0.29641606  0.26242718  0.14354929     0.30100
H282        H  0.33867952  0.16314203  0.07653101     0.31800
H283        H  0.29801016  0.08071581  0.00578193     0.30800
H284        H  0.09356641  0.30553512  0.07135984     0.34800
H285        H  0.13012678  0.24267612  0.11847922     0.27500
H286        H  0.28950919  0.30436459  0.41570919     0.31800
H287        H  0.31799487  0.16600157  0.44153062     0.34600
H288        H  0.32773143  0.27152440  0.11329037     0.27200
H289        H  0.09664096  0.22933204  0.09406411     0.40100
H290        H  0.08282594  0.28258337  0.46877248     0.30100
H291        H  0.13857495  0.34981594  0.49003352     0.37800
H292        H  0.28689010  0.09711698  0.04648983     0.29600
H293        H  0.12861213  0.16116100  0.43588879     0.29700
H294        H  0.31694548  0.26421785  0.41571745     0.29900
Zr295      Zr  0.16331082  0.02980478  0.23161982     2.17500
O296        O  0.11469811  0.08670338  0.24845884    -0.52400
O297        O  0.16548086  0.02920687  0.16069678    -0.75600
O298        O  0.18559570  0.09078320  0.22989524    -0.82400
O299        O  0.08303722  0.47031207  0.25588121    -0.84200
O300        O  0.24919147  0.08446906  0.25537569    -0.79800
O301        O  0.09342211  0.02213568  0.22142769    -0.91400
O302        O  0.19907412  0.47250739  0.13926480    -0.77400
O303        O  0.23234583  0.00964270  0.21245560    -0.86900
O304        O  0.16652309  0.46485960  0.21556258    -0.86600
O305        O  0.20337181  0.03765576  0.28663487    -0.73300
O306        O  0.14494148  0.49878581  0.28779480    -0.85400
Zr307      Zr  0.26062220  0.42240664  0.30524025     2.26400
Zr308      Zr  0.27287019  0.01735487  0.26708182     2.06300
Zr309      Zr  0.15022172  0.43376867  0.27200186     2.10000
Zr310      Zr  0.23508786  0.44477301  0.19541014     1.78800
O311        O  0.10650591  0.42364177  0.32525723    -0.94300
O312        O  0.28555977  0.46415608  0.15324239    -0.42100
O313        O  0.21913591  0.41301815  0.25155096    -0.78700
O314        O  0.27869924  0.45255847  0.24814260    -0.97400
O315        O  0.25601008  0.48685657  0.32209924    -0.90700
O316        O  0.19163063  0.44230951  0.32561731    -0.93500
C317        C  0.17902760  0.00578280  0.13341121     1.00200
C318        C  0.07016101  0.49941467  0.23549903     1.13200
C319        C  0.21659930  0.10424601  0.24180123     1.03900
O320        O  0.31504684  0.02941717  0.21344534    -0.95700
O321        O  0.34050764  0.98453787  0.28636434    -0.91400
O322        O  0.33347832  0.42627007  0.30409513    -0.84600
C323        C  0.35509852  0.45168430  0.29713882     1.10600
O324        O  0.12885553  0.05913244  0.34982025    -0.97700
Zr325      Zr  0.18673484  0.50736741  0.34117003     1.88900
O326        O  0.25425915  0.42464772  0.37579504    -0.74300
O327        O  0.30772155  0.05332581  0.31077803    -0.53600
O328        O  0.20555489  0.06078735  0.37159893    -0.98200
O329        O  0.13423871  0.49326541  0.38465259    -0.55500
O330        O  0.22424812  0.48249130  0.39645864    -0.74800
C331        C  0.24290764  0.44915190  0.40253897     0.97500
O332        O  0.30657215  0.36815469  0.32918677    -0.63600
O333        O  0.11661251  0.39547939  0.22955947    -0.58400
O334        O  0.24514707  0.36078271  0.28669972    -0.95100
O335        O  0.17620937  0.36762295  0.28825159    -0.93600
O336        O  0.21121727  0.39283173  0.16351986    -0.93900
O337        O  0.28935445  0.39165613  0.18187172    -0.92700
C338        C  0.21214925  0.34724662  0.28923570     1.16400
H339        H  0.14782407  0.46143873  0.19556151     0.32300
H340        H  0.30611617  0.44242495  0.23978931     0.43200
H341        H  0.18482043  0.42764960  0.34672619     0.36700
H342        H  0.19840632  0.06352391  0.29494229     0.33200
H343        H  0.28126642  0.45254948  0.12842235     0.25000
H344        H  0.31510698  0.07417789  0.29570581     0.30900
H345        H  0.20393292  0.05635407  0.39918448     0.36800
H346        H  0.20124075  0.37830931  0.18417222     0.31300
H347        H  0.13675232  0.37229623  0.22470324     0.30100
H348        H  0.09044309  0.40488788  0.31595431     0.31800
H349        H  0.14081731  0.50378869  0.40938007     0.30800
H350        H  0.29157335  0.37656250  0.20531918     0.34800
H351        H  0.28961594  0.35335681  0.34394285     0.27500
H352        H  0.12572045  0.09683145  0.27158539     0.31800
H353        H  0.10568643  0.05187978  0.33588633     0.34600
H354        H  0.09515823  0.38722559  0.24532918     0.27200
H355        H  0.31615025  0.35250654  0.30662482     0.40100
H356        H  0.33606434  0.00645295  0.21087314     0.30100
H357        H  0.27801588  0.99135325  0.14958675     0.37800
H358        H  0.14003396  0.46573108  0.38826144     0.29600
H359        H  0.28616052  0.06550927  0.32854694     0.29700
H360        H  0.08962261  0.07862726  0.25800533     0.29900
C361        C  0.45928831  0.44000766  0.84702979     0.85400
C362        C  0.47504812  0.46482277  0.81780148    -0.54800
C363        C  0.46097304  0.46019480  0.78185691     0.08300
C364        C  0.43432591  0.42845248  0.77887474     0.19300
C365        C  0.41231832  0.44866605  0.84200348    -0.55600
C366        C  0.39911888  0.44220635  0.80673373     0.08400
C367        C  0.47278222  0.39996736  0.83293921    -0.55100
C368        C  0.45990648  0.39311518  0.79766443     0.09000
H369        H  0.49332856  0.48554874  0.82577410     0.13500
H370        H  0.42328712  0.42248904  0.75036536    -0.00700
H371        H  0.39120153  0.46041186  0.86428376     0.13800
H372        H  0.48874159  0.37783607  0.85083085     0.13600
C373        C  0.21868228  0.25875854  0.84847898     0.85400
C374        C  0.20294029  0.23420980  0.81886413    -0.54800
C375        C  0.21687959  0.23933364  0.78286915     0.08300
C376        C  0.24344077  0.27122557  0.78042211     0.19300
C377        C  0.26557123  0.25028911  0.84275426    -0.55600
C378        C  0.27884293  0.25713492  0.80757266     0.08400
C379        C  0.20483894  0.29896346  0.83568838    -0.55100
C380        C  0.21733974  0.30635462  0.80038345     0.09000
H381        H  0.18463810  0.21341286  0.82650927     0.13500
H382        H  0.25446455  0.27746068  0.75192118    -0.00700
H383        H  0.28663365  0.23841798  0.86459746     0.13800
H384        H  0.18860783  0.32075265  0.85436573     0.13600
C385        C  0.43337939  0.30601800  0.99280875     0.85400
C386        C  0.39127591  0.29920955  0.00589641    -0.54800
C387        C  0.38466317  0.26374849  0.99776381     0.08300
C388        C  0.42013603  0.23904860  0.97611210     0.19300
C389        C  0.46208141  0.27442230  0.51391597    -0.55600
C390        C  0.45493742  0.23911292  0.50580793     0.08400
C391        C  0.43603454  0.29710104  0.95055829    -0.55100
C392        C  0.42950729  0.26230956  0.94116960     0.09000
H393        H  0.36770774  0.31997175  0.52088068     0.13500
H394        H  0.41347613  0.21113082  0.96803827    -0.00700
H395        H  0.48462405  0.28008573  0.53404113     0.13800
H396        H  0.44417591  0.31652500  0.92961940     0.13600
C397        C  0.24459004  0.39505481  0.99554077     0.85400
C398        C  0.28661999  0.40202680  0.00827954    -0.54800
C399        C  0.29353030  0.43722548  0.99979948     0.08300
C400        C  0.25834071  0.46145717  0.97817336     0.19300
C401        C  0.21373364  0.42660680  0.51431633    -0.55600
C402        C  0.22136545  0.46171742  0.50676301     0.08400
C403        C  0.24254960  0.40290662  0.95314951    -0.55100
C404        C  0.24960161  0.43725348  0.94327022     0.09000
H405        H  0.30793857  0.38118928  0.52219666     0.13500
H406        H  0.26510190  0.48919896  0.96988130    -0.00700
H407        H  0.19080629  0.42122088  0.53440727     0.13800
H408        H  0.23462687  0.38299204  0.93244062     0.13600
C409        C  0.46826569  0.00729495  0.68513013     0.85400
C410        C  0.45181447  0.04648841  0.69977422    -0.54800
C411        C  0.46501583  0.05397476  0.73460957     0.08300
C412        C  0.49224235  0.01936323  0.75330701     0.19300
C413        C  0.01416994  0.50133914  0.69045234    -0.55600
C414        C  0.02672916  0.00748946  0.72570177     0.08400
C415        C  0.45323687  0.48138093  0.71451789    -0.55100
C416        C  0.46638857  0.48660405  0.75059272     0.09000
H417        H  0.43512503  0.06824381  0.68185431     0.13500
H418        H  0.00155686  0.02613237  0.78220494    -0.00700
H419        H  0.03590963  0.49174630  0.66837243     0.13800
H420        H  0.43649007  0.45960895  0.70618645     0.13600
C421        C  0.99451782  0.13779841  0.54073153     0.85400
C422        C  0.46558303  0.17029151  0.52057748    -0.54800
C423        C  0.47489893  0.20522085  0.52690290     0.08300
C424        C  0.01154751  0.20415849  0.55414864     0.19300
C425        C  0.03729085  0.14203094  0.52728488    -0.55600
C426        C  0.04590251  0.17717230  0.53309693     0.08400
C427        C  0.49235140  0.14857828  0.58192358    -0.55100
C428        C  0.00088273  0.18304644  0.59049578     0.09000
H429        H  0.44280984  0.16460569  0.00129310     0.13500
H430        H  0.02015268  0.23164280  0.56087482    -0.00700
H431        H  0.05857364  0.11941746  0.51410496     0.13800
H432        H  0.48335142  0.13027498  0.60355022     0.13600
C433        C  0.18227301  0.06264892  0.54214451     0.85400
C434        C  0.21208676  0.03033392  0.52339520    -0.54800
C435        C  0.20202319  0.49541592  0.52955703     0.08300
C436        C  0.16411551  0.49667151  0.55584110     0.19300
C437        C  0.14035241  0.05775697  0.52742848    -0.55600
C438        C  0.13158700  0.02272135  0.53323246     0.08400
C439        C  0.18224471  0.05330131  0.58421738    -0.55100
C440        C  0.17343086  0.01914540  0.59254758     0.09000
H441        H  0.23707304  0.03602245  0.00605081     0.13500
H442        H  0.15511486  0.46932649  0.56216466    -0.00700
H443        H  0.11975800  0.07985179  0.51336709     0.13800
H444        H  0.19051049  0.07200163  0.60598632     0.13600
C445        C  0.21068493  0.19246516  0.68582159     0.85400
C446        C  0.22866597  0.15344354  0.69906088    -0.54800
C447        C  0.21635178  0.14524011  0.73400892     0.08300
C448        C  0.18826874  0.17900996  0.75417642     0.19300
C449        C  0.16418470  0.19641674  0.69169202    -0.55600
C450        C  0.15220407  0.18977968  0.72735118     0.08400
C451        C  0.22369313  0.21930387  0.71476869    -0.55100
C452        C  0.21132629  0.21329992  0.75098903     0.09000
H453        H  0.24555389  0.13218016  0.68016314     0.13500
H454        H  0.17863372  0.17214630  0.78298109    -0.00700
H455        H  0.14210586  0.20485419  0.67004792     0.13800
H456        H  0.23932458  0.24187294  0.70657508     0.13600
Zr457      Zr  0.42100235  0.43860261  0.97359623     2.17500
O458        O  0.37072818  0.41810909  0.93165895    -0.52400
O459        O  0.42092089  0.37181697  0.98148773    -0.75600
O460        O  0.44499457  0.43164160  0.91003442    -0.82400
O461        O  0.34316007  0.44808138  0.54414369    -0.84200
O462        O  0.49995062  0.45950234  0.89891039    -0.79800
O463        O  0.35043193  0.46386681  0.98419842    -0.91400
O464        O  0.46845785  0.34860348  0.52554254    -0.77400
O465        O  0.49308191  0.41967762  0.97829551    -0.86900
O466        O  0.42730773  0.41989683  0.53864447    -0.86600
O467        O  0.45095247  0.49194000  0.95446581    -0.73300
O468        O  0.39068097  0.49413544  0.50888361    -0.85400
Zr469      Zr  0.00179311  0.00641937  0.56195923     2.26400
Zr470      Zr  0.02473393  0.47257072  0.96386362     2.06300
Zr471      Zr  0.39945309  0.47509610  0.57345760     2.10000
Zr472      Zr  0.49909120  0.40077564  0.54479906     1.78800
O473        O  0.34685975  0.02233458  0.59603671    -0.94300
O474        O  0.04696724  0.35499126  0.50716775    -0.42100
O475        O  0.47122307  0.45505396  0.58126347    -0.78700
O476        O  0.03263455  0.45304554  0.52713847    -0.97400
O477        O  0.49133300  0.02164860  0.49991399    -0.90700
O478        O  0.43051124  0.02746815  0.55674115    -0.93500
C479        C  0.44170113  0.34477097  0.00008603     1.00200
C480        C  0.33000237  0.45072427  0.50979596     1.13200
C481        C  0.47002890  0.44377139  0.88791543     1.03900
O482        O  0.07928815  0.42226891  0.94338261    -0.95700
O483        O  0.08451699  0.49601523  0.99498298    -0.91400
O484        O  0.06518282  0.02405838  0.55069244    -0.84600
C485        C  0.09112271  0.01358521  0.52461580     1.10600
O486        O  0.36169280  0.06067537  0.95542870    -0.97700
Zr487      Zr  0.42395898  0.04506034  0.49199308     1.88900
O488        O  0.00102748  0.07336233  0.55793193    -0.74300
O489        O  0.04773727  0.01623420  0.91923832    -0.53600
O490        O  0.43754949  0.07300502  0.93082233    -0.98200
O491        O  0.37996557  0.09756313  0.52355815    -0.55500
O492        O  0.46025762  0.09508427  0.50744312    -0.74800
C493        C  0.48506474  0.09981740  0.53378267     0.97500
O494        O  0.05651040  0.48268342  0.60464128    -0.63600
O495        O  0.37451323  0.43891118  0.62371638    -0.58400
O496        O  0.47339572  0.02454376  0.62221157    -0.95100
O497        O  0.43239064  0.48181800  0.63458659    -0.93600
O498        O  0.48813634  0.36925541  0.60381755    -0.93900
O499        O  0.05906978  0.38479471  0.58448657    -0.92700
C500        C  0.45719267  0.00379086  0.64462520     1.16400
H501        H  0.41199612  0.40076087  0.54608742     0.32300
H502        H  0.06132320  0.44642099  0.53254028     0.43200
H503        H  0.42074766  0.04829796  0.57359974     0.36700
H504        H  0.44335649  0.99968180  0.92937309     0.33200
H505        H  0.04895790  0.33135715  0.52160899     0.25000
H506        H  0.02359840  0.02619829  0.90379482     0.30900
H507        H  0.43251737  0.10050351  0.93540710     0.36800
H508        H  0.49809417  0.34222764  0.59853727     0.31300
H509        H  0.36130542  0.45801378  0.64222798     0.30100
H510        H  0.35973420  0.03547073  0.61608027     0.31800
H511        H  0.38045616  0.11935765  0.50682886     0.30800
H512        H  0.07891886  0.40064891  0.57652883     0.34800
H513        H  0.04822404  0.45933629  0.61391546     0.27500
H514        H  0.38559316  0.39851643  0.91445889     0.31800
H515        H  0.36250364  0.03896891  0.93797402     0.34600
H516        H  0.35197993  0.42798421  0.61265241     0.27200
H517        H  0.08141939  0.47327548  0.58956088     0.40100
H518        H  0.08303760  0.40470613  0.96496420     0.30100
H519        H  0.04131461  0.35140898  0.98665773     0.37800
H520        H  0.39390146  0.10373582  0.54683157     0.29600
H521        H  0.05186008  0.03788459  0.93519443     0.29700
H522        H  0.36043556  0.43968373  0.91520482     0.29900
Zr523      Zr  0.01408263  0.16972145  0.72735711     2.17500
O524        O  0.05852271  0.11704515  0.69612223    -0.52400
O525        O  0.00796334  0.17366231  0.65732672    -0.75600
O526        O  0.49795056  0.10675232  0.73577538    -0.82400
O527        O  0.09404853  0.23203865  0.74911811    -0.84200
O528        O  0.43028525  0.11476907  0.75118649    -0.79800
O529        O  0.08689821  0.17265193  0.73201725    -0.91400
O530        O  0.47730391  0.22989110  0.63706848    -0.77400
O531        O  0.44562594  0.18956186  0.71058673    -0.86900
O532        O  0.00949413  0.23420554  0.71125737    -0.86600
O533        O  0.47659709  0.16085405  0.78383878    -0.73300
O534        O  0.03421946  0.20114865  0.78302941    -0.85400
Zr535      Zr  0.41772526  0.27720762  0.80506132     2.26400
Zr536      Zr  0.40643160  0.18136853  0.76659211     2.06300
Zr537      Zr  0.02663712  0.26652804  0.76696028     2.10000
Zr538      Zr  0.44035398  0.25421548  0.69423042     1.78800
O539        O  0.07404941  0.28176061  0.81448887    -0.94300
O540        O  0.39192109  0.23296698  0.65124532    -0.42100
O541        O  0.45702227  0.28674116  0.74961727    -0.78700
O542        O  0.39856515  0.24622477  0.74864460    -0.97400
O543        O  0.42473468  0.21293175  0.82208698    -0.90700
O544        O  0.48763053  0.25850680  0.82196085    -0.93500
C545        C  0.99560431  0.19710709  0.63062340     1.00200
C546        C  0.10845565  0.19831461  0.73798721     1.13200
C547        C  0.46478866  0.09409379  0.74254381     1.03900
O548        O  0.36085476  0.16579244  0.71762358    -0.95700
O549        O  0.33808822  0.21487692  0.78572880    -0.91400
O550        O  0.34461532  0.27398524  0.80451223    -0.84600
C551        C  0.32316493  0.24831087  0.79786192     1.10600
O552        O  0.04909651  0.14034664  0.84689233    -0.97700
Zr553      Zr  0.49484538  0.19364835  0.83778912     1.88900
O554        O  0.42329290  0.27279231  0.87479946    -0.74300
O555        O  0.37808393  0.14531014  0.81493727    -0.53600
O556        O  0.47583380  0.13910130  0.86879896    -0.98200
O557        O  0.04510590  0.21235736  0.87923967    -0.55500
O558        O  0.45779821  0.21697746  0.89481540    -0.74800
C559        C  0.43625347  0.24927797  0.90114212     0.97500
O560        O  0.38348860  0.33302354  0.83899319    -0.63600
O561        O  0.05303038  0.30487509  0.71941116    -0.58400
O562        O  0.43005245  0.33940290  0.78634611    -0.95100
O563        O  0.49905403  0.33316618  0.78243488    -0.93600
O564        O  0.46105105  0.30916411  0.66578675    -0.93900
O565        O  0.38333555  0.30446981  0.68119561    -0.92700
C566        C  0.46308751  0.35315164  0.78622308     1.16400
H567        H  0.02791375  0.23706346  0.69064339     0.32300
H568        H  0.37101203  0.25586514  0.74092379     0.43200
H569        H  0.49484283  0.27349496  0.84278359     0.36700
H570        H  0.48131797  0.13569656  0.79365551     0.33200
H571        H  0.39745880  0.24335093  0.62622400     0.25000
H572        H  0.37030717  0.12362679  0.80130351     0.30900
H573        H  0.48337988  0.14142879  0.89569935     0.36800
H574        H  0.49123115  0.30377715  0.66602742     0.31300
H575        H  0.07671843  0.31303744  0.73163463     0.30100
H576        H  0.08935084  0.25715488  0.82268530     0.31800
H577        H  0.04679171  0.19489680  0.90088864     0.30800
H578        H  0.38193506  0.32152700  0.70345061     0.34800
H579        H  0.36591675  0.32361430  0.85812044     0.27500
H580        H  0.07678084  0.12830359  0.67909952     0.31800
H581        H  0.05595598  0.13030291  0.82100837     0.34600
H582        H  0.06519490  0.28713860  0.69922174     0.27200
H583        H  0.40469143  0.34221761  0.85420135     0.40100
H584        H  0.34911909  0.19024430  0.70626054     0.30100
H585        H  0.40121378  0.20552314  0.64832609     0.37800
H586        H  0.03242143  0.23693590  0.89027553     0.29600
H587        H  0.40176279  0.13429314  0.83047012     0.29700
H588        H  0.04105785  0.10559742  0.67851757     0.29900
Zr589      Zr  0.25658742  0.26258146  0.97446499     2.17500
O590        O  0.30387185  0.28693484  0.93171895    -0.52400
O591        O  0.25630425  0.32934926  0.98352873    -0.75600
O592        O  0.23221855  0.26805399  0.91129834    -0.82400
O593        O  0.33384955  0.25267395  0.54345398    -0.84200
O594        O  0.17913858  0.23785008  0.90031747    -0.79800
O595        O  0.32736470  0.23812593  0.98219071    -0.91400
O596        O  0.20723445  0.35241659  0.52644907    -0.77400
O597        O  0.18462703  0.28124015  0.98009813    -0.86900
O598        O  0.24910890  0.28144531  0.53933616    -0.86600
O599        O  0.22819990  0.20822258  0.95571467    -0.73300
O600        O  0.28622188  0.20728499  0.50889637    -0.85400
Zr601      Zr  0.17563248  0.19361037  0.56345733     2.26400
Zr602      Zr  0.15531414  0.22657369  0.96467317     2.06700
Zr603      Zr  0.27726450  0.22681555  0.57364062     2.10000
Zr604      Zr  0.17731132  0.29981842  0.54656107     1.78800
O605        O  0.33214355  0.17871811  0.59640700    -0.94300
O606        O  0.12708527  0.34635287  0.51546375    -0.42100
O607        O  0.20533650  0.24604867  0.58232478    -0.78700
O608        O  0.14489005  0.24789846  0.52950353    -0.97400
O609        O  0.18722735  0.17926297  0.50167815    -0.90700
O610        O  0.24748072  0.17293143  0.55763640    -0.93500
C611        C  0.23603850  0.35650835  0.00302983     1.00200
C612        C  0.34674756  0.25002356  0.50883322     1.13200
C613        C  0.20813123  0.25469137  0.88926845     1.03900
O614        O  0.10209780  0.27673553  0.94288073    -0.95700
O615        O  0.09444126  0.20464085  0.99400446    -0.91400
O616        O  0.11167102  0.17675943  0.55199492    -0.84600
C617        C  0.08660112  0.18623984  0.52543761     1.10600
O618        O  0.31939426  0.14469713  0.95902383    -0.97700
Zr619      Zr  0.25466019  0.15528982  0.99340156     1.88900
O620        O  0.17459011  0.12737749  0.55832101    -0.74300
O621        O  0.13485494  0.18224170  0.91933936    -0.53600
O622        O  0.24680519  0.12546246  0.93235668    -0.98200
O623        O  0.29986937  0.10268268  0.52127302    -0.55500
O624        O  0.21858591  0.10510900  0.51072951    -0.74800
C625        C  0.19222900  0.10104251  0.53626534     0.97500
O626        O  0.12157288  0.21990827  0.60803629    -0.63600
O627        O  0.29974793  0.26797407  0.62126411    -0.58400
O628        O  0.20519890  0.17588715  0.62280466    -0.95100
O629        O  0.24462311  0.21944391  0.63490806    -0.93600
O630        O  0.18782554  0.33060154  0.60640992    -0.93900
O631        O  0.11959790  0.31189761  0.59047832    -0.92700
C632        C  0.22120731  0.19662916  0.64539590     1.16400
H633        H  0.26413774  0.30083728  0.54670809     0.32300
H634        H  0.11611735  0.25446329  0.53510433     0.43200
H635        H  0.25727944  0.15199697  0.57391896     0.36700
H636        H  0.23636126  0.19996613  0.93032757     0.33200
H637        H  0.12784425  0.37026244  0.52908070     0.25000
H638        H  0.15868637  0.16162235  0.91743569     0.30900
H639        H  0.25921546  0.09874872  0.93589779     0.36800
H640        H  0.21519270  0.31821250  0.61476140     0.31300
H641        H  0.31059855  0.25122403  0.64226033     0.30100
H642        H  0.32685927  0.17731966  0.62397196     0.31800
H643        H  0.29884179  0.08093720  0.50430133     0.30800
H644        H  0.09582158  0.30690081  0.57591156     0.34800
H645        H  0.13136926  0.24199932  0.61889907     0.27500
H646        H  0.28746263  0.30634302  0.91581524     0.31800
H647        H  0.31483602  0.16136740  0.93674762     0.34600
H648        H  0.32391966  0.27666921  0.61044461     0.27200
H649        H  0.09730919  0.23124880  0.59343615     0.40100
H650        H  0.07974123  0.27787988  0.96174827     0.30100
H651        H  0.14404398  0.34960209  0.98434093     0.37800
H652        H  0.28690448  0.09640290  0.54514404     0.29600
H653        H  0.11358814  0.17078899  0.93215057     0.29700
H654        H  0.31479502  0.26618733  0.91402301     0.29900
Zr655      Zr  0.16331370  0.03055551  0.73110448     2.17500
O656        O  0.11382002  0.08689221  0.74778795    -0.52400
O657        O  0.16554018  0.02987892  0.66023223    -0.75600
O658        O  0.18560428  0.09154221  0.72917690    -0.82400
O659        O  0.08327914  0.46936616  0.75521362    -0.84200
O660        O  0.24952460  0.08548328  0.75398799    -0.79800
O661        O  0.09298770  0.02208821  0.72201790    -0.91400
O662        O  0.19832306  0.47273329  0.63938284    -0.77400
O663        O  0.23279838  0.01109477  0.71232169    -0.86900
O664        O  0.16619932  0.46494973  0.71579001    -0.86600
O665        O  0.20348804  0.03872032  0.78613997    -0.73300
O666        O  0.14502112  0.49812662  0.78806369    -0.85400
Zr667      Zr  0.26066472  0.42196129  0.80554891     2.26400
Zr668      Zr  0.27327098  0.01884986  0.76712190     2.06300
Zr669      Zr  0.15043366  0.43302605  0.77187414     2.10000
Zr670      Zr  0.23450439  0.44452025  0.69545070     1.78800
O671        O  0.10484526  0.42045039  0.82271643    -0.94300
O672        O  0.28550691  0.46224525  0.65304302    -0.42100
O673        O  0.21936286  0.41249858  0.75170037    -0.78700
O674        O  0.27854104  0.45196758  0.74818351    -0.97400
O675        O  0.25605510  0.48631306  0.82224338    -0.90700
O676        O  0.19162621  0.44149783  0.82574743    -0.93500
C677        C  0.17873332  0.00610363  0.63314608     1.00200
C678        C  0.07020071  0.49919828  0.73594810     1.13200
C679        C  0.21672577  0.10507137  0.74068583     1.03900
O680        O  0.31873141  0.03297936  0.71688718    -0.95700
O681        O  0.34117052  0.98568980  0.78566247    -0.91400
O682        O  0.33347068  0.42550915  0.80442203    -0.84600
C683        C  0.35506861  0.45088004  0.79732565     1.10600
O684        O  0.13073383  0.06034780  0.85192907    -0.97700
Zr685      Zr  0.18683184  0.50643254  0.84152914     1.88900
O686        O  0.25503546  0.42485421  0.87612934    -0.74300
O687        O  0.30293090  0.05612549  0.81364481    -0.53600
O688        O  0.20476008  0.06073581  0.87418711    -0.98200
O689        O  0.13540622  0.48954242  0.88452695    -0.55500
O690        O  0.22457266  0.48245740  0.89694020    -0.74800
C691        C  0.24379949  0.44931708  0.90291317     0.97500
O692        O  0.30483702  0.36779270  0.83186484    -0.63600
O693        O  0.12089053  0.39349450  0.72752188    -0.58400
O694        O  0.24580012  0.36030084  0.78697088    -0.95100
O695        O  0.17688276  0.36680382  0.78827438    -0.93600
O696        O  0.20846303  0.39392796  0.66320098    -0.93900
O697        O  0.28665186  0.38997823  0.68078432    -0.92700
C698        C  0.21295404  0.34659350  0.78951490     1.16400
H699        H  0.14740075  0.46185492  0.69577712     0.32300
H700        H  0.30595030  0.44181002  0.73982576     0.43200
H701        H  0.18479102  0.42679119  0.84681496     0.36700
H702        H  0.19841618  0.06462165  0.79437558     0.33200
H703        H  0.28034727  0.45083849  0.62834456     0.25000
H704        H  0.32026284  0.07030527  0.79860506     0.30900
H705        H  0.23477301  0.05443758  0.87666932     0.36800
H706        H  0.20028573  0.37825903  0.68379984     0.31300
H707        H  0.09785912  0.38598854  0.74167490     0.30100
H708        H  0.08623283  0.44463815  0.82731663     0.31800
H709        H  0.13490677  0.50706631  0.90630736     0.30800
H710        H  0.29945332  0.38236355  0.70540990     0.34800
H711        H  0.28707863  0.35385251  0.84671211     0.27500
H712        H  0.12542778  0.09838025  0.76980523     0.31800
H713        H  0.11131776  0.05903870  0.83105830     0.34600
H714        H  0.10775020  0.41076282  0.70780081     0.27200
H715        H  0.31460163  0.35133166  0.80991714     0.40100
H716        H  0.33725238  0.00888755  0.71157355     0.30100
H717        H  0.27605554  0.99328542  0.64681765     0.37800
H718        H  0.14747102  0.46475177  0.89493365     0.29600
H719        H  0.27997800  0.07538737  0.82285594     0.29700
H720        H  0.08977320  0.07829145  0.75900967     0.29900
C721        C  0.45992216  0.94124152  0.34713574     0.85400
C722        C  0.47496679  0.96623759  0.31773150    -0.54800
C723        C  0.46053882  0.96140810  0.28195748     0.08300
C724        C  0.43428325  0.92933925  0.27936263     0.19300
C725        C  0.41286062  0.94946455  0.34268254    -0.55600
C726        C  0.39928744  0.94274901  0.30759931     0.08400
C727        C  0.47376691  0.90129571  0.33300564    -0.55100
C728        C  0.46058531  0.89423807  0.29794259     0.09000
H729        H  0.49320198  0.98706303  0.32547564     0.13500
H730        H  0.42301087  0.92329172  0.25096257    -0.00700
H731        H  0.39200598  0.96126430  0.36515798     0.13800
H732        H  0.49014977  0.87930305  0.35081235     0.13600
C733        C  0.21899040  0.75842309  0.34867494     0.85400
C734        C  0.20468905  0.73274212  0.31928708    -0.54800
C735        C  0.21826626  0.73810898  0.28322340     0.08300
C736        C  0.24340017  0.77115082  0.28055364     0.19300
C737        C  0.26595602  0.75161442  0.34302465    -0.55600
C738        C  0.27899666  0.75869283  0.30790296     0.08400
C739        C  0.20361966  0.79824004  0.33547698    -0.55100
C740        C  0.21612302  0.80584739  0.30019210     0.09000
H741        H  0.18739030  0.71122582  0.32711324     0.13500
H742        H  0.25418162  0.77751824  0.25200501    -0.00700
H743        H  0.28738143  0.74017800  0.36473123     0.13800
H744        H  0.18701192  0.81985206  0.35412298     0.13600
C745        C  0.43434474  0.80585539  0.49487444     0.85400
C746        C  0.39190388  0.79947565  0.50760785    -0.54800
C747        C  0.38496780  0.76412689  0.49927548     0.08300
C748        C  0.42042764  0.73927972  0.47770301     0.19300
C749        C  0.46200159  0.77475223  0.01372253    -0.55600
C750        C  0.45431862  0.73950744  0.00618807     0.08400
C751        C  0.43730742  0.79707040  0.45259945    -0.55100
C752        C  0.43033137  0.76255720  0.44290006     0.09000
H753        H  0.36799032  0.82150074  0.02075403     0.13500
H754        H  0.41360795  0.71147032  0.46943924    -0.00700
H755        H  0.48496920  0.78043834  0.03335394     0.13800
H756        H  0.44589167  0.81644244  0.43182133     0.13600
C757        C  0.24395295  0.89454831  0.49439508     0.85400
C758        C  0.28628827  0.90102119  0.50674491    -0.54800
C759        C  0.29339822  0.93625362  0.49867478     0.08300
C760        C  0.25795983  0.96113580  0.47804636     0.19300
C761        C  0.21447388  0.92740408  0.01417547    -0.55600
C762        C  0.22205635  0.96252469  0.00668587     0.08400
C763        C  0.24130731  0.90317204  0.45225665    -0.55100
C764        C  0.24842238  0.93766031  0.44297077     0.09000
H765        H  0.30869132  0.88180563  0.02156980     0.13500
H766        H  0.26488873  0.98890385  0.47007828    -0.00700
H767        H  0.19147784  0.92195594  0.03414914     0.13800
H768        H  0.23303047  0.88367219  0.43128914     0.13600
C769        C  0.46838086  0.50858957  0.18575214     0.85400
C770        C  0.45131640  0.54770108  0.20035984    -0.54800
C771        C  0.46399194  0.55535788  0.23537840     0.08300
C772        C  0.49131153  0.52081282  0.25425277     0.19300
C773        C  0.01430231  0.00395556  0.18974060    -0.55600
C774        C  0.02641086  0.50766500  0.22585624     0.08400
C775        C  0.45313813  0.98182918  0.21429201    -0.55100
C776        C  0.46582548  0.98755340  0.25044635     0.09000
H777        H  0.43477584  0.56935522  0.18224470     0.13500
H778        H  0.00130467  0.52611699  0.28232160    -0.00700
H779        H  0.03593232  0.99626214  0.16720588     0.13800
H780        H  0.43662885  0.95984345  0.20606406     0.13600
C781        C  0.99547918  0.63818293  0.04116882     0.85400
C782        C  0.46530957  0.67066162  0.02170550    -0.54800
C783        C  0.47451097  0.70573928  0.02744405     0.08300
C784        C  0.01189410  0.70465981  0.05502649     0.19300
C785        C  0.03799792  0.64284787  0.02756622    -0.55600
C786        C  0.04622264  0.67805095  0.03360905     0.08400
C787        C  0.49294625  0.64967507  0.08309233    -0.55100
C788        C  0.00163326  0.68319043  0.09123381     0.09000
H789        H  0.44139406  0.66479085  0.50348286     0.13500
H790        H  0.02026541  0.73220329  0.06192768    -0.00700
H791        H  0.05933957  0.62054161  0.01399783     0.13800
H792        H  0.48436237  0.63151817  0.10505758     0.13600
C793        C  0.18316849  0.56323255  0.04279454     0.85400
C794        C  0.21231733  0.53098812  0.02315231    -0.54800
C795        C  0.20231011  0.99617548  0.02921341     0.08300
C796        C  0.16483525  0.99705681  0.05597174     0.19300
C797        C  0.14081236  0.55882034  0.02881213    -0.55600
C798        C  0.13190122  0.52378645  0.03423808     0.08400
C799        C  0.18405564  0.55328203  0.08476375    -0.55100
C800        C  0.17485886  0.51915358  0.09283335     0.09000
H801        H  0.23758336  0.53491607  0.50692667     0.13500
H802        H  0.15610003  0.96962960  0.06240953    -0.00700
H803        H  0.12013294  0.58119767  0.01526437     0.13800
H804        H  0.19279647  0.57165295  0.10660351     0.13600
C805        C  0.21035535  0.69273080  0.18559551     0.85400
C806        C  0.22746112  0.65310423  0.19788752    -0.54800
C807        C  0.21566025  0.64447181  0.23288860     0.08300
C808        C  0.18866634  0.67828950  0.25401398     0.19300
C809        C  0.16385543  0.69767488  0.19216828    -0.55600
C810        C  0.15226241  0.69024441  0.22775972     0.08400
C811        C  0.22468025  0.71846380  0.21492944    -0.55100
C812        C  0.21258425  0.71212352  0.25118703     0.09000
H813        H  0.24355927  0.63195130  0.17842973     0.13500
H814        H  0.17925922  0.67110013  0.28279812    -0.00700
H815        H  0.14150448  0.70720674  0.17098566     0.13800
H816        H  0.24079775  0.74076252  0.20694571     0.13600
Zr817      Zr  0.42279568  0.93765100  0.47338045     2.17500
O818        O  0.37641089  0.91215797  0.43087218    -0.52400
O819        O  0.42270007  0.87125616  0.48302465    -0.75600
O820        O  0.44724914  0.93130846  0.40997407    -0.82400
O821        O  0.34381282  0.94925147  0.04354790    -0.84200
O822        O  0.50044055  0.96144036  0.39869972    -0.79800
O823        O  0.35138772  0.96052942  0.48141843    -0.91400
O824        O  0.46903084  0.84900113  0.02514758    -0.77400
O825        O  0.49494193  0.91947611  0.47828854    -0.86900
O826        O  0.42895439  0.91992162  0.03753921    -0.86600
O827        O  0.45158701  0.99167617  0.45448224    -0.73300
O828        O  0.39217874  0.99385395  0.00806947    -0.85400
Zr829      Zr  0.00233321  0.50722026  0.06228138     2.26400
Zr830      Zr  0.02352514  0.97348807  0.46280794     2.06300
Zr831      Zr  0.40097826  0.97489973  0.07264051     2.10000
Zr832      Zr  0.50080531  0.90106894  0.04325161     1.78800
O833        O  0.34697246  0.52537300  0.09394173    -0.94300
O834        O  0.04817851  0.85447544  0.00932919    -0.42100
O835        O  0.47269002  0.95505274  0.07998997    -0.78700
O836        O  0.03224517  0.95327837  0.02735619    -0.97400
O837        O  0.49130135  0.52141079  0.00020145    -0.90700
O838        O  0.43075026  0.52841348  0.05713942    -0.93500
C839        C  0.44322814  0.84435391  0.50192582     1.00200
C840        C  0.33093014  0.95126968  0.00911448     1.13200
C841        C  0.47119778  0.94479216  0.38780597     1.03900
O842        O  0.07855426  0.92629874  0.43722327    -0.95700
O843        O  0.08384320  0.99590680  0.49364949    -0.91400
O844        O  0.06504889  0.52608000  0.05091322    -0.84600
C845        C  0.09139509  0.51472827  0.02542530     1.10600
O846        O  0.36145233  0.55953252  0.45666225    -0.97700
Zr847      Zr  0.42416953  0.54549099  0.99220174     1.88900
O848        O  0.00198238  0.57387231  0.05809662    -0.74300
O849        O  0.04612327  0.51800657  0.41997179    -0.53600
O850        O  0.43417440  0.57352177  0.43173875    -0.98200
O851        O  0.37870320  0.59886547  0.02058403    -0.55500
O852        O  0.45961975  0.59557461  0.00981992    -0.74800
C853        C  0.48522669  0.60017376  0.03549125     0.97500
O854        O  0.05518185  0.98092316  0.10536036    -0.63600
O855        O  0.37739439  0.93556608  0.12096344    -0.58400
O856        O  0.47440607  0.52519227  0.12265665    -0.95100
O857        O  0.43361137  0.98149580  0.13391133    -0.93600
O858        O  0.49244001  0.87311469  0.10473706    -0.93900
O859        O  0.05893413  0.88650882  0.08572561    -0.92700
C860        C  0.45777389  0.50484029  0.14513556     1.16400
H861        H  0.41357282  0.90088602  0.04510222     0.32300
H862        H  0.06091747  0.94664889  0.03281911     0.43200
H863        H  0.42125193  0.54950028  0.07378866     0.36700
H864        H  0.44316094  0.49984866  0.43038173     0.33200
H865        H  0.04800727  0.83049763  0.02265547     0.25000
H866        H  0.02434679  0.52367841  0.40085130     0.30900
H867        H  0.46226721  0.57898139  0.43252848     0.36800
H868        H  0.46260087  0.87778570  0.10933542     0.31300
H869        H  0.36533683  0.95324672  0.14122211     0.30100
H870        H  0.32342145  0.52251416  0.07789301     0.31800
H871        H  0.38152369  0.62058779  0.00445698     0.30800
H872        H  0.08048910  0.89885438  0.07468191     0.34800
H873        H  0.04560504  0.95834067  0.11511615     0.27500
H874        H  0.39311626  0.89261069  0.41480567     0.31800
H875        H  0.36314172  0.53852247  0.43821484     0.34600
H876        H  0.35406360  0.92577733  0.10998817     0.27200
H877        H  0.07974439  0.97034767  0.09028782     0.40100
H878        H  0.08851364  0.91042467  0.45912467     0.30100
H879        H  0.03569082  0.85347284  0.47948494     0.37800
H880        H  0.39046588  0.60441935  0.04521089     0.29600
H881        H  0.04399077  0.54152083  0.43500680     0.29700
H882        H  0.36526422  0.93253361  0.41332997     0.29900
Zr883      Zr  0.01447035  0.66979700  0.22812192     2.17500
O884        O  0.05969758  0.61833250  0.19590913    -0.52400
O885        O  0.00814546  0.67379729  0.15809138    -0.75600
O886        O  0.49710719  0.60815451  0.23667502    -0.82400
O887        O  0.09373915  0.73230211  0.24883582    -0.84200
O888        O  0.42931224  0.61652719  0.25141655    -0.79800
O889        O  0.08735991  0.67224565  0.23374312    -0.91400
O890        O  0.47706843  0.73173600  0.13750337    -0.77400
O891        O  0.44522578  0.69150442  0.21121713    -0.86900
O892        O  0.00913770  0.73434290  0.21171517    -0.86600
O893        O  0.47613447  0.66236098  0.28471846    -0.73300
O894        O  0.03455589  0.70143128  0.28366351    -0.85400
Zr895      Zr  0.41824015  0.77855764  0.30641447     2.26400
Zr896      Zr  0.40624698  0.68320153  0.26730721     2.06300
Zr897      Zr  0.02649455  0.76666639  0.26725803     2.10000
Zr898      Zr  0.44066377  0.75623813  0.19517032     1.78800
O899        O  0.07236037  0.78362223  0.31538851    -0.94300
O900        O  0.39163972  0.73625006  0.15213215    -0.42100
O901        O  0.45774329  0.78798578  0.25091691    -0.78700
O902        O  0.39889768  0.74813936  0.24965129    -0.97400
O903        O  0.42499785  0.71423862  0.32296166    -0.90700
O904        O  0.48815717  0.75951647  0.32286817    -0.93500
C905        C  0.99596309  0.69721707  0.13131813     1.00200
C906        C  0.10856277  0.69837601  0.23870026     1.13200
C907        C  0.46380237  0.59562450  0.24312983     1.03900
O908        O  0.35875367  0.66634247  0.22078485    -0.95700
O909        O  0.33807356  0.71707932  0.28553863    -0.91400
O910        O  0.34494074  0.77560023  0.30592705    -0.84600
C911        C  0.32331764  0.75023616  0.29833406     1.10600
O912        O  0.04937756  0.64083543  0.34834486    -0.97700
Zr913      Zr  0.49511345  0.69478818  0.33876917     1.88900
O914        O  0.42398059  0.77350885  0.37639494    -0.74300
O915        O  0.37849865  0.64788965  0.31657659    -0.53600
O916        O  0.47528060  0.64110400  0.37075195    -0.98200
O917        O  0.04569038  0.71266838  0.37948339    -0.55500
O918        O  0.45851417  0.71757673  0.39615692    -0.74800
C919        C  0.43698609  0.74984341  0.40268249     0.97500
O920        O  0.38553421  0.83461252  0.34093932    -0.63600
O921        O  0.05329011  0.80628427  0.22128950    -0.58400
O922        O  0.43070868  0.84052965  0.28731290    -0.95100
O923        O  0.49977382  0.83410167  0.28326854    -0.93600
O924        O  0.46058022  0.81230422  0.16835147    -0.93900
O925        O  0.38340905  0.80619204  0.18171568    -0.92700
C926        C  0.46379332  0.85418731  0.28693646     1.16400
H927        H  0.02753724  0.73732623  0.19111946     0.32300
H928        H  0.37138786  0.75802714  0.24199330     0.43200
H929        H  0.49534700  0.77459360  0.34361654     0.36700
H930        H  0.48054056  0.63716904  0.29445057     0.33200
H931        H  0.39712477  0.74703185  0.12729256     0.25000
H932        H  0.36146518  0.63243871  0.30281939     0.30900
H933        H  0.48488554  0.64259672  0.39712547     0.36800
H934        H  0.48922289  0.80420824  0.15993809     0.31300
H935        H  0.07774871  0.81296956  0.23350470     0.30100
H936        H  0.09454183  0.76157378  0.31736801     0.31800
H937        H  0.04714860  0.69569591  0.40153111     0.30800
H938        H  0.37697941  0.81950572  0.20623680     0.34800
H939        H  0.36774522  0.82552960  0.36008841     0.27500
H940        H  0.07634003  0.63029390  0.17788610     0.31800
H941        H  0.06731811  0.64058952  0.32580591     0.34600
H942        H  0.06426073  0.78928023  0.20010592     0.27200
H943        H  0.40721270  0.84313632  0.35606602     0.40100
H944        H  0.35616167  0.68657994  0.20174338     0.30100
H945        H  0.40065697  0.70883213  0.14867517     0.37800
H946        H  0.03337145  0.73758514  0.38998412     0.29600
H947        H  0.40213018  0.62960915  0.32555608     0.29700
H948        H  0.04215481  0.60577674  0.17939044     0.29900
Zr949      Zr  0.25758064  0.76136406  0.47475056     2.17500
O950        O  0.30677312  0.78294975  0.43199737    -0.52400
O951        O  0.25625605  0.82861534  0.48246491    -0.75600
O952        O  0.23427618  0.76504605  0.41153322    -0.82400
O953        O  0.33190762  0.75525102  0.04307852    -0.84200
O954        O  0.17788695  0.73948554  0.40062226    -0.79800
O955        O  0.32827483  0.73730530  0.48410552    -0.91400
O956        O  0.20749067  0.85337600  0.02589862    -0.77400
O957        O  0.18565198  0.78040392  0.48016922    -0.86900
O958        O  0.24815216  0.78236269  0.03809897    -0.86600
O959        O  0.22804507  0.70749617  0.45602839    -0.73300
O960        O  0.28523276  0.70832678  0.00750385    -0.85400
Zr961      Zr  0.17561358  0.69460908  0.06262887     2.26400
Zr962      Zr  0.15518277  0.72631542  0.46502776     2.06700
Zr963      Zr  0.27632688  0.72758853  0.07244452     2.10000
Zr964      Zr  0.17636111  0.80108297  0.04493410     1.78800
O965        O  0.33175359  0.67794293  0.09105971    -0.94300
O966        O  0.12848080  0.84721742  0.01055540    -0.42100
O967        O  0.20463664  0.74744798  0.08113882    -0.78700
O968        O  0.14432450  0.74871024  0.02862242    -0.97400
O969        O  0.18652028  0.68011125  0.00070615    -0.90700
O970        O  0.24716997  0.67355743  0.05634133    -0.93500
C971        C  0.23540365  0.85591447  0.50145266     1.00200
C972        C  0.34544927  0.75217635  0.00869254     1.13200
C973        C  0.20855092  0.75411048  0.38952963     1.03900
O974        O  0.10068791  0.77593552  0.44426799    -0.95700
O975        O  0.09432532  0.70431496  0.49466196    -0.91400
O976        O  0.11172305  0.67805053  0.05210511    -0.84600
C977        C  0.08656097  0.68739551  0.02567095     1.10600
O978        O  0.31939063  0.64463516  0.45914022    -0.97700
Zr979      Zr  0.25473378  0.65460902  0.49364462     1.88900
O980        O  0.17564087  0.62804285  0.05901967    -0.74300
O981        O  0.13433287  0.68094391  0.42121967    -0.53600
O982        O  0.24897105  0.62435993  0.43238513    -0.98200
O983        O  0.29957439  0.60203399  0.01636863    -0.55500
O984        O  0.21854517  0.60592471  0.01061132    -0.74800
C985        C  0.19299792  0.60169757  0.03682276     0.97500
O986        O  0.12312482  0.72191810  0.10819331    -0.63600
O987        O  0.30094238  0.76407620  0.12296030    -0.58400
O988        O  0.20351235  0.67718996  0.12248067    -0.95100
O989        O  0.24403362  0.71990194  0.13420115    -0.93600
O990        O  0.18503020  0.83144117  0.10540348    -0.93900
O991        O  0.11646643  0.81598830  0.08599190    -0.92700
C992        C  0.22033152  0.69738191  0.14496095     1.16400
H993        H  0.26321439  0.80166218  0.04565315     0.32300
H994        H  0.11558248  0.75509998  0.03435572     0.43200
H995        H  0.25688339  0.65257893  0.07261103     0.36700
H996        H  0.23563414  0.69907025  0.43056435     0.33200
H997        H  0.12737220  0.87109685  0.02477334     0.25000
H998        H  0.15993801  0.66882585  0.40848876     0.30900
H999        H  0.26315581  0.59812113  0.43569971     0.36800
H1000       H  0.21494855  0.82867345  0.10838839     0.31300
H1001       H  0.31321622  0.74525936  0.14169364     0.30100
H1002       H  0.32563547  0.67276079  0.11780862     0.31800
H1003       H  0.29476052  0.58009404  0.00119619     0.30800
H1004       H  0.09406914  0.80714862  0.07234176     0.34800
H1005       H  0.13325585  0.74419835  0.11821833     0.27500
H1006       H  0.29115668  0.80140976  0.41461416     0.31800
H1007       H  0.31640378  0.66481284  0.43999951     0.34600
H1008       H  0.32424441  0.77419015  0.11216722     0.27200
H1009       H  0.09844497  0.73291936  0.09399165     0.40100
H1010       H  0.07633694  0.77233490  0.45911359     0.30100
H1011       H  0.14122891  0.84562256  0.48296725     0.37800
H1012       H  0.28972012  0.59755735  0.04217418     0.29600
H1013       H  0.12671222  0.66099216  0.43743435     0.29700
H1014       H  0.31830124  0.76114732  0.41579311     0.29900
Zr1015     Zr  0.16269961  0.52967657  0.23128898     2.17500
O1016       O  0.11254188  0.58557536  0.24759665    -0.52400
O1017       O  0.16659900  0.52956887  0.16050779    -0.75600
O1018       O  0.18466041  0.59078522  0.22880681    -0.82400
O1019       O  0.08389781  0.97003295  0.25405595    -0.84200
O1020       O  0.24918261  0.58439186  0.25225034    -0.79800
O1021       O  0.09294727  0.52086487  0.22093200    -0.91400
O1022       O  0.20073137  0.97330018  0.13908846    -0.77400
O1023       O  0.23154686  0.50940259  0.21172701    -0.86900
O1024       O  0.16759158  0.96528582  0.21481194    -0.86600
O1025       O  0.20358882  0.53813449  0.28563210    -0.73300
O1026       O  0.14454501  0.99760497  0.28695922    -0.85400
Zr1027     Zr  0.26061847  0.92254455  0.30583044     2.26400
Zr1028     Zr  0.27285093  0.51758685  0.26566849     2.06300
Zr1029     Zr  0.15102088  0.93264590  0.26999441     2.10000
Zr1030     Zr  0.23617877  0.94510045  0.19537606     1.78800
O1031       O  0.10309491  0.91750680  0.31748213    -0.94300
O1032       O  0.28706220  0.96405177  0.15338702    -0.42100
O1033       O  0.22065919  0.91237446  0.25115822    -0.78700
O1034       O  0.27918438  0.95250655  0.24882363    -0.97400
O1035       O  0.25468880  0.98684100  0.32318094    -0.90700
O1036       O  0.19099515  0.94134351  0.32478147    -0.93500
C1037       C  0.17928810  0.50572936  0.13336480     1.00200
C1038       C  0.07082886  0.00002762  0.23492937     1.13200
C1039       C  0.21614089  0.60418759  0.23955127     1.03900
O1040       O  0.31626011  0.52853171  0.21253218    -0.95700
O1041       O  0.34060463  0.48474607  0.28470941    -0.91400
O1042       O  0.33359885  0.92583028  0.30494052    -0.84600
C1043       C  0.35512199  0.95140177  0.29845008     1.10600
O1044       O  0.13248966  0.56119372  0.35210060    -0.97700
Zr1045     Zr  0.18489063  0.00636849  0.34119817     1.88900
O1046       O  0.25498316  0.92630996  0.37609801    -0.74300
O1047       O  0.30386073  0.55615960  0.30992575    -0.53600
O1048       O  0.20961060  0.56112132  0.37068406    -0.98200
O1049       O  0.13280061  0.98983333  0.38371386    -0.55500
O1050       O  0.22156491  0.98276989  0.39724277    -0.74800
C1051       C  0.24238337  0.95021329  0.40294807     0.97500
O1052       O  0.30764190  0.87025831  0.33207219    -0.63600
O1053       O  0.12302682  0.89438275  0.22320476    -0.58400
O1054       O  0.24561996  0.85996597  0.29162872    -0.95100
O1055       O  0.17688889  0.86626991  0.28594389    -0.93600
O1056       O  0.20720874  0.89603483  0.16342272    -0.93900
O1057       O  0.28935609  0.89145514  0.18036136    -0.92700
C1058       C  0.21269549  0.84623961  0.29023927     1.16400
H1059       H  0.14915218  0.96247510  0.19442357     0.32300
H1060       H  0.30672122  0.94249070  0.24072995     0.43200
H1061       H  0.18416654  0.92629221  0.34557091     0.36700
H1062       H  0.19877338  0.56410669  0.29360708     0.33200
H1063       H  0.28258035  0.95256594  0.12855398     0.25000
H1064       H  0.31900416  0.57145113  0.29382663     0.30900
H1065       H  0.20491392  0.55843319  0.39819984     0.36800
H1066       H  0.20634773  0.87660345  0.18290384     0.31300
H1067       H  0.09723289  0.88970280  0.23479976     0.30100
H1068       H  0.09598010  0.94064480  0.33308859     0.31800
H1069       H  0.13766781  0.00143107  0.40839359     0.30800
H1070       H  0.29918012  0.88138528  0.20529448     0.34800
H1071       H  0.29127403  0.85662139  0.34878921     0.27500
H1072       H  0.12415875  0.59760480  0.26925533     0.31800
H1073       H  0.10985434  0.55659041  0.33568924     0.34600
H1074       H  0.11420190  0.91138089  0.20182672     0.27200
H1075       H  0.31638527  0.85298486  0.31047664     0.40100
H1076       H  0.33921049  0.53843842  0.22419740     0.30100
H1077       H  0.27634551  0.49142435  0.14937797     0.37800
H1078       H  0.14029832  0.96249283  0.38805902     0.29600
H1079       H  0.28083134  0.57434704  0.32075233     0.29700
H1080       H  0.08888316  0.57668281  0.25925884     0.29900
C1081       C  0.46006630  0.94073711  0.84713396     0.85400
C1082       C  0.47619384  0.96507104  0.81762368    -0.54800
C1083       C  0.46189646  0.96033335  0.78174399     0.08300
C1084       C  0.43460795  0.92911710  0.77923466     0.19300
C1085       C  0.41318377  0.94998307  0.84241588    -0.55600
C1086       C  0.39968416  0.94361140  0.80724531     0.08400
C1087       C  0.47298728  0.90058290  0.83328126    -0.55100
C1088       C  0.45987653  0.89369700  0.79815725     0.09000
H1089       H  0.49499915  0.98545103  0.82533486     0.13500
H1090       H  0.42329239  0.92315273  0.75083220    -0.00700
H1091       H  0.39238306  0.96189558  0.86488964     0.13800
H1092       H  0.48886499  0.87843272  0.85121190     0.13600
C1093       C  0.21712501  0.76086181  0.84859051     0.85400
C1094       C  0.20286225  0.73483258  0.81945295    -0.54800
C1095       C  0.21738812  0.73913629  0.78349645     0.08300
C1096       C  0.24320168  0.77162357  0.78056746     0.19300
C1097       C  0.26409708  0.75325795  0.84390127    -0.55600
C1098       C  0.27804114  0.75909333  0.80867497     0.08400
C1099       C  0.20263748  0.80039178  0.83431951    -0.55100
C1100       C  0.21611019  0.80702746  0.79916063     0.09000
H1101       H  0.18493819  0.71382072  0.82738035     0.13500
H1102       H  0.25475623  0.77718737  0.75207273    -0.00700
H1103       H  0.28467020  0.74222502  0.86635543     0.13800
H1104       H  0.18579122  0.82256362  0.85221369     0.13600
C1105       C  0.43278874  0.80644378  0.99426812     0.85400
C1106       C  0.39024411  0.80028253  0.00647135    -0.54800
C1107       C  0.38338863  0.76494623  0.99827876     0.08300
C1108       C  0.41912120  0.73962357  0.97761085     0.19300
C1109       C  0.46381222  0.77400499  0.51371468    -0.55600
C1110       C  0.45588657  0.73888073  0.50599099     0.08400
C1111       C  0.43635614  0.79713521  0.95209724    -0.55100
C1112       C  0.42947280  0.76245688  0.94273920     0.09000
H1113       H  0.36992221  0.82046903  0.52247646     0.13500
H1114       H  0.41227520  0.71174064  0.96962139    -0.00700
H1115       H  0.48684614  0.77952589  0.53335681     0.13800
H1116       H  0.44502749  0.81631172  0.93116817     0.13600
C1117       C  0.24434250  0.89555647  0.99490013     0.85400
C1118       C  0.28657341  0.90248901  0.00710554    -0.54800
C1119       C  0.29326210  0.93780067  0.99872709     0.08300
C1120       C  0.25767741  0.96216502  0.97781872     0.19300
C1121       C  0.21426085  0.92652594  0.51394284    -0.55600
C1122       C  0.22224583  0.96163981  0.50680803     0.08400
C1123       C  0.24162529  0.90378244  0.95259806    -0.55100
C1124       C  0.24851252  0.93824038  0.94289153     0.09000
H1125       H  0.30830316  0.87996888  0.52086555     0.13500
H1126       H  0.26422613  0.99001383  0.96963835    -0.00700
H1127       H  0.19091803  0.92117804  0.53360407     0.13800
H1128       H  0.23357094  0.88398711  0.93182926     0.13600
C1129       C  0.46732442  0.50761537  0.68576427     0.85400
C1130       C  0.45113211  0.54697837  0.70017278    -0.54800
C1131       C  0.46408751  0.55456255  0.73505863     0.08300
C1132       C  0.49103799  0.51977280  0.75394135     0.19300
C1133       C  0.01401622  0.00149544  0.69025617    -0.55600
C1134       C  0.02657866  0.50735210  0.72603091     0.08400
C1135       C  0.45459612  0.98080916  0.71398571    -0.55100
C1136       C  0.46776188  0.98615876  0.75007874     0.09000
H1137       H  0.43465749  0.56871535  0.68210363     0.13500
H1138       H  0.00144341  0.52656073  0.78221660    -0.00700
H1139       H  0.03564471  0.99253973  0.66794721     0.13800
H1140       H  0.43788613  0.95896975  0.70576972     0.13600
C1141       C  0.99436974  0.63874184  0.54050134     0.85400
C1142       C  0.46571307  0.67016389  0.52173993    -0.54800
C1143       C  0.47524675  0.70511544  0.52756612     0.08300
C1144       C  0.01089885  0.70525098  0.55388649     0.19300
C1145       C  0.03720009  0.64306478  0.52737092    -0.55600
C1146       C  0.04556163  0.67828695  0.53314120     0.08400
C1147       C  0.49215722  0.64919589  0.58348719    -0.55100
C1148       C  0.00006061  0.68422279  0.59029542     0.09000
H1149       H  0.44076165  0.66518356  0.00378558     0.13500
H1150       H  0.01927011  0.73283662  0.56057616    -0.00700
H1151       H  0.05872960  0.62045992  0.51442936     0.13800
H1152       H  0.48296705  0.63125841  0.60536530     0.13600
C1153       C  0.18219282  0.56253892  0.54276939     0.85400
C1154       C  0.21217198  0.53010117  0.52435957    -0.54800
C1155       C  0.20241421  0.99552903  0.52908364     0.08300
C1156       C  0.16488589  0.99665588  0.55584058     0.19300
C1157       C  0.14050676  0.55790310  0.52733914    -0.55600
C1158       C  0.13138628  0.52296246  0.53277845     0.08400
C1159       C  0.18134900  0.55312357  0.58483344    -0.55100
C1160       C  0.17232439  0.51894490  0.59290547     0.09000
H1161       H  0.23703781  0.53598786  0.00492933     0.13500
H1162       H  0.15623228  0.96923733  0.56250026    -0.00700
H1163       H  0.12028417  0.58011865  0.51303343     0.13800
H1164       H  0.18940506  0.57173161  0.60678431     0.13600
C1165       C  0.21069576  0.69187148  0.68666079     0.85400
C1166       C  0.22801324  0.65259127  0.69961634    -0.54800
C1167       C  0.21597419  0.64439906  0.73467889     0.08300
C1168       C  0.18852975  0.67853431  0.75520500     0.19300
C1169       C  0.16417835  0.69666862  0.69290450    -0.55600
C1170       C  0.15226511  0.69015355  0.72863560     0.08400
C1171       C  0.22458629  0.71821097  0.71563951    -0.55100
C1172       C  0.21225225  0.71244012  0.75193968     0.09000
H1173       H  0.24441921  0.63125710  0.68050953     0.13500
H1174       H  0.17899108  0.67180942  0.78409510    -0.00700
H1175       H  0.14205186  0.70563923  0.67135146     0.13800
H1176       H  0.24047969  0.74056359  0.70734134     0.13600
Zr1177     Zr  0.42162220  0.93842918  0.97322049     2.17500
O1178       O  0.37275764  0.91583682  0.93123036    -0.52400
O1179       O  0.42145298  0.87188000  0.98191714    -0.75600
O1180       O  0.44730515  0.93023348  0.91001104    -0.82400
O1181       O  0.34482792  0.94705208  0.54285829    -0.84200
O1182       O  0.49968405  0.96145720  0.89878847    -0.79800
O1183       O  0.35072761  0.96332127  0.98238034    -0.91400
O1184       O  0.47189137  0.84815598  0.52466740    -0.77400
O1185       O  0.49349410  0.91964249  0.97875018    -0.86900
O1186       O  0.43060550  0.91900833  0.53757593    -0.86600
O1187       O  0.45126789  0.99193225  0.95472021    -0.73300
O1188       O  0.39197015  0.99281332  0.50812498    -0.85400
Zr1189     Zr  0.00170266  0.50793942  0.56154342     2.26400
Zr1190     Zr  0.02423741  0.97259071  0.96310175     2.06300
Zr1191     Zr  0.40133330  0.97345120  0.57256509     2.10000
Zr1192     Zr  0.50252620  0.90091471  0.54290139     1.78800
O1193       O  0.34535329  0.52548450  0.59467061    -0.94300
O1194       O  0.04896642  0.85588944  0.50417617    -0.42100
O1195       O  0.47333416  0.95452442  0.57989200    -0.78700
O1196       O  0.03317808  0.95222449  0.52652967    -0.97400
O1197       O  0.49099777  0.52065279  0.50100747    -0.90700
O1198       O  0.43006806  0.52828000  0.55775578    -0.93500
C1199       C  0.44132963  0.84506352  0.00141038     1.00200
C1200       C  0.33165081  0.94898593  0.50850815     1.13200
C1201       C  0.47095217  0.94425162  0.88787093     1.03900
O1202       O  0.07765736  0.92167264  0.94181198    -0.95700
O1203       O  0.08427138  0.99553688  0.99403902    -0.91400
O1204       O  0.06421241  0.52664630  0.54843288    -0.84600
C1205       C  0.09086871  0.51433410  0.52351666     1.10600
O1206       O  0.36066848  0.55430309  0.95698557    -0.97700
Zr1207     Zr  0.42407758  0.54549889  0.49294361     1.88900
O1208       O  0.00070634  0.57462268  0.55784403    -0.74300
O1209       O  0.04911423  0.51631083  0.92070970    -0.53600
O1210       O  0.43128673  0.57441938  0.93087599    -0.98200
O1211       O  0.37962664  0.59767797  0.52463148    -0.55500
O1212       O  0.46045319  0.59505521  0.50929005    -0.74800
C1213       C  0.48490238  0.59975989  0.53588631     0.97500
O1214       O  0.05570351  0.97931618  0.60518659    -0.63600
O1215       O  0.37771117  0.93260576  0.61953460    -0.58400
O1216       O  0.47285222  0.52462844  0.62305592    -0.95100
O1217       O  0.43353830  0.98121789  0.63388830    -0.93600
O1218       O  0.49468335  0.86958932  0.60266205    -0.93900
O1219       O  0.05870591  0.88555400  0.58485408    -0.92700
C1220       C  0.45634195  0.50408761  0.64536709     1.16400
H1221       H  0.41567505  0.89973593  0.54540540     0.32300
H1222       H  0.06189116  0.94554700  0.53186863     0.43200
H1223       H  0.42061497  0.54922160  0.57457225     0.36700
H1224       H  0.44334409  0.49981975  0.92908235     0.33200
H1225       H  0.04966717  0.83115867  0.51626565     0.25000
H1226       H  0.02626566  0.52437051  0.90313729     0.30900
H1227       H  0.42224234  0.60168273  0.93550617     0.36800
H1228       H  0.46748309  0.88161074  0.61233931     0.31300
H1229       H  0.36729762  0.94941095  0.64103198     0.30100
H1230       H  0.32533133  0.52822227  0.57382399     0.31800
H1231       H  0.37951572  0.61940082  0.50768191     0.30800
H1232       H  0.08209790  0.89286518  0.57118181     0.34800
H1233       H  0.04619121  0.95668946  0.61489630     0.27500
H1234       H  0.38837514  0.89599560  0.91475671     0.31800
H1235       H  0.36437565  0.53358429  0.93805714     0.34600
H1236       H  0.35321946  0.92449926  0.60893504     0.27200
H1237       H  0.08027919  0.96876756  0.59010994     0.40100
H1238       H  0.10046182  0.93427432  0.93407086     0.30100
H1239       H  0.03543100  0.85114357  0.98455954     0.37800
H1240       H  0.39371050  0.60431028  0.54764188     0.29600
H1241       H  0.05033769  0.53896141  0.93631437     0.29700
H1242       H  0.36239602  0.93676966  0.91403214     0.29900
Zr1243     Zr  0.01406206  0.67074815  0.72736973     2.17500
O1244       O  0.05902335  0.61898434  0.69529572    -0.52400
O1245       O  0.00793935  0.67506998  0.65720495    -0.75600
O1246       O  0.49670970  0.60762134  0.73666290    -0.82400
O1247       O  0.09384862  0.73280795  0.75006892    -0.84200
O1248       O  0.42897683  0.61559615  0.75164960    -0.79800
O1249       O  0.08681265  0.67338791  0.73295690    -0.91400
O1250       O  0.47402064  0.73056815  0.63761580    -0.77400
O1251       O  0.44404410  0.69074725  0.71190356    -0.86900
O1252       O  0.00813087  0.73530839  0.71089377    -0.86600
O1253       O  0.47548142  0.66183031  0.78494684    -0.73300
O1254       O  0.03416667  0.70258496  0.78280595    -0.85400
Zr1255     Zr  0.41725808  0.77794501  0.80667183     2.26400
Zr1256     Zr  0.40533047  0.68222662  0.76822879     2.06300
Zr1257     Zr  0.02584498  0.76772272  0.76618078     2.10000
Zr1258     Zr  0.43908818  0.75550486  0.69573327     1.78800
O1259       O  0.07249449  0.78691173  0.81223607    -0.94300
O1260       O  0.38810944  0.73677892  0.65400256    -0.42100
O1261       O  0.45653190  0.78734519  0.75121611    -0.78700
O1262       O  0.39764321  0.74715870  0.75029030    -0.97400
O1263       O  0.42414326  0.71368885  0.82354473    -0.90700
O1264       O  0.48713669  0.75903940  0.82315402    -0.93500
C1265       C  0.99448994  0.69821691  0.63053014     1.00200
C1266       C  0.10840358  0.69896307  0.73919221     1.13200
C1267       C  0.46356553  0.59486465  0.74315347     1.03900
O1268       O  0.35702634  0.66487815  0.72278116    -0.95700
O1269       O  0.33719580  0.71649892  0.78729536    -0.91400
O1270       O  0.34405303  0.77546830  0.80631780    -0.84600
C1271       C  0.32244974  0.74995472  0.79951403     1.10600
O1272       O  0.05558070  0.64765407  0.84911356    -0.97700
Zr1273     Zr  0.49431758  0.69421579  0.83900583     1.88900
O1274       O  0.42276760  0.77282355  0.87641471    -0.74300
O1275       O  0.38093970  0.64606122  0.81878894    -0.53600
O1276       O  0.47370333  0.64067956  0.87062553    -0.98200
O1277       O  0.04216683  0.71693732  0.88207121    -0.55500
O1278       O  0.45786670  0.71721648  0.89638488    -0.74800
C1279       C  0.43605612  0.74938640  0.90273747     0.97500
O1280       O  0.38448972  0.83377698  0.84139523    -0.63600
O1281       O  0.05144591  0.80399455  0.71636589    -0.58400
O1282       O  0.42978332  0.84004663  0.78785933    -0.95100
O1283       O  0.49879503  0.83368948  0.78304834    -0.93600
O1284       O  0.46091866  0.81007776  0.66753448    -0.93900
O1285       O  0.38310130  0.80721348  0.68408100    -0.92700
C1286       C  0.46286222  0.85372429  0.78703524     1.16400
H1287       H  0.02615940  0.73860466  0.69008476     0.32300
H1288       H  0.37009380  0.75692993  0.74266091     0.43200
H1289       H  0.49426946  0.77413369  0.84391495     0.36700
H1290       H  0.48015078  0.63658531  0.79454324     0.33200
H1291       H  0.39139162  0.74958458  0.62974240     0.25000
H1292       H  0.36398334  0.62998563  0.80583826     0.30900
H1293       H  0.48246893  0.64234479  0.89725105     0.36800
H1294       H  0.49078319  0.80603794  0.67132269     0.31300
H1295       H  0.02669912  0.81895880  0.70515422     0.30100
H1296       H  0.08374194  0.80736038  0.79973810     0.31800
H1297       H  0.02651112  0.73884598  0.89583044     0.30800
H1298       H  0.38135477  0.82301323  0.70729364     0.34800
H1299       H  0.36646340  0.82467536  0.86031958     0.27500
H1300       H  0.07642531  0.63079248  0.67787369     0.31800
H1301       H  0.05588887  0.64252281  0.87665691     0.34600
H1302       H  0.06457509  0.82270128  0.72994471     0.27200
H1303       H  0.40603380  0.84225889  0.85673468     0.40100
H1304       H  0.34575158  0.68864370  0.70988689     0.30100
H1305       H  0.39791549  0.70981365  0.64835927     0.37800
H1306       H  0.06105924  0.72776998  0.86538911     0.29600
H1307       H  0.40540702  0.62838283  0.82704517     0.29700
H1308       H  0.04150295  0.60709313  0.67813246     0.29900
Zr1309     Zr  0.25551345  0.76351965  0.97336884     2.17500
O1310       O  0.30421344  0.78590371  0.93057082    -0.52400
O1311       O  0.25629414  0.82991232  0.98293105    -0.75600
O1312       O  0.22745346  0.77406244  0.91151425    -0.82400
O1313       O  0.33400859  0.75347809  0.54489863    -0.84200
O1314       O  0.17858063  0.73894823  0.90039772    -0.79800
O1315       O  0.32627568  0.73930596  0.98211305    -0.91400
O1316       O  0.20694653  0.85240683  0.52486700    -0.77400
O1317       O  0.18363758  0.78221033  0.98011539    -0.86900
O1318       O  0.24877152  0.78153754  0.53883122    -0.86600
O1319       O  0.22693460  0.70935248  0.95407103    -0.73300
O1320       O  0.28686584  0.70680548  0.50986511    -0.85400
Zr1321     Zr  0.17556851  0.69385031  0.56358386     2.26400
Zr1322     Zr  0.15400179  0.72775433  0.96451854     2.06700
Zr1323     Zr  0.27671964  0.72756178  0.57419723     2.10000
Zr1324     Zr  0.17679273  0.80006036  0.54468665     1.78800
O1325       O  0.33166767  0.67994459  0.59765738    -0.94300
O1326       O  0.12878584  0.84430035  0.50838380    -0.42100
O1327       O  0.20464000  0.74689451  0.58172665    -0.78700
O1328       O  0.14468758  0.74770553  0.52896974    -0.97400
O1329       O  0.18750818  0.67905109  0.50186304    -0.90700
O1330       O  0.24740426  0.67338210  0.55836080    -0.93500
C1331       C  0.23582492  0.85701285  0.00230877     1.00200
C1332       C  0.34736830  0.75066865  0.51038766     1.13200
C1333       C  0.20581249  0.75784087  0.88936988     1.03900
O1334       O  0.10017938  0.77842026  0.94487772    -0.95700
O1335       O  0.09434450  0.70424629  0.99464657    -0.91400
O1336       O  0.11142384  0.67747594  0.55188602    -0.84600
C1337       C  0.08624611  0.68731222  0.52549390     1.10600
O1338       O  0.31816198  0.64372972  0.95659145    -0.97700
Zr1339     Zr  0.25350965  0.65595956  0.99116361     1.88900
O1340       O  0.17504361  0.62732734  0.55905780    -0.74300
O1341       O  0.12710433  0.68499007  0.92164449    -0.53600
O1342       O  0.24240497  0.62855732  0.92960065    -0.98200
O1343       O  0.29925272  0.60193674  0.52294784    -0.55500
O1344       O  0.21842318  0.60488725  0.51106324    -0.74800
C1345       C  0.19238148  0.60089298  0.53691719     0.97500
O1346       O  0.12265649  0.72118246  0.60880593    -0.63600
O1347       O  0.29595993  0.77078420  0.62144899    -0.58400
O1348       O  0.20383594  0.67623859  0.62348047    -0.95100
O1349       O  0.24483102  0.71859691  0.63558735    -0.93600
O1350       O  0.18502441  0.83290821  0.60385704    -0.93900
O1351       O  0.11649202  0.81473755  0.58522079    -0.92700
C1352       C  0.22087096  0.69622599  0.64607425     1.16400
H1353       H  0.26362894  0.80112481  0.54596710     0.32300
H1354       H  0.11592782  0.75434957  0.53459808     0.43200
H1355       H  0.25706492  0.65266859  0.57495264     0.36700
H1356       H  0.23514073  0.70160124  0.92855425     0.33200
H1357       H  0.12909433  0.86927641  0.51997352     0.25000
H1358       H  0.12588972  0.69692256  0.89642761     0.30900
H1359       H  0.25860857  0.60282517  0.93031445     0.36800
H1360       H  0.21462788  0.83334937  0.60517583     0.31300
H1361       H  0.30929419  0.75451855  0.64182432     0.30100
H1362       H  0.32277570  0.67430402  0.62350159     0.31800
H1363       H  0.29768071  0.57994004  0.50647574     0.30800
H1364       H  0.09341053  0.81040999  0.56930402     0.34800
H1365       H  0.13249853  0.74364878  0.61873196     0.27500
H1366       H  0.28850666  0.80395652  0.91286895     0.31800
H1367       H  0.31967804  0.66737987  0.94311403     0.34600
H1368       H  0.31808888  0.78207150  0.60991104     0.27200
H1369       H  0.09801333  0.73188436  0.59439747     0.40100
H1370       H  0.07904439  0.77994503  0.96499866     0.30100
H1371       H  0.14199547  0.85126387  0.98621640     0.37800
H1372       H  0.28616693  0.59648413  0.54705118     0.29600
H1373       H  0.14923316  0.66288251  0.91918532     0.29700
H1374       H  0.31671185  0.76420006  0.91468999     0.29900
Zr1375     Zr  0.16274454  0.52966872  0.73181422     2.17500
O1376       O  0.11438102  0.58718356  0.74715761    -0.52400
O1377       O  0.16465388  0.52927028  0.66083528    -0.75600
O1378       O  0.18517346  0.59063879  0.72986615    -0.82400
O1379       O  0.08421566  0.96921603  0.75365344    -0.84200
O1380       O  0.24928944  0.58417805  0.75413909    -0.79800
O1381       O  0.09266767  0.52154836  0.72265412    -0.91400
O1382       O  0.20003273  0.97350445  0.63906446    -0.77400
O1383       O  0.23147909  0.50917422  0.71175312    -0.86900
O1384       O  0.16817216  0.96590857  0.71428073    -0.86600
O1385       O  0.20380452  0.53751385  0.78624184    -0.73300
O1386       O  0.14520001  0.99860165  0.78665020    -0.85400
Zr1387     Zr  0.26123840  0.92364432  0.80538529     2.26400
Zr1388     Zr  0.27293421  0.51696971  0.76579223     2.06300
Zr1389     Zr  0.15186979  0.93364708  0.76986576     2.10000
Zr1390     Zr  0.23717852  0.94656611  0.69500222     1.78800
O1391       O  0.10594814  0.92173245  0.82060781    -0.94300
O1392       O  0.28654737  0.96641109  0.65178807    -0.42100
O1393       O  0.22137471  0.91385236  0.75064900    -0.78700
O1394       O  0.27978425  0.95410306  0.74857511    -0.97400
O1395       O  0.25555816  0.98790434  0.82306749    -0.90700
O1396       O  0.19180171  0.94216693  0.82465346    -0.93500
C1397       C  0.17748867  0.50557707  0.63356742     1.00200
C1398       C  0.07068068  0.99941057  0.73509884     1.13200
C1399       C  0.21637729  0.60407345  0.74128408     1.03900
O1400       O  0.31582614  0.52852051  0.71247089    -0.95700
O1401       O  0.34061298  0.48386011  0.78469847    -0.91400
O1402       O  0.33393256  0.92733505  0.80514111    -0.84600
C1403       C  0.35559992  0.95262818  0.79811806     1.10600
O1404       O  0.13248421  0.56030976  0.85165732    -0.97700
Zr1405     Zr  0.18570095  0.00718854  0.84090214     1.88900
O1406       O  0.25492112  0.92627904  0.87582235    -0.74300
O1407       O  0.30617532  0.55451117  0.80926275    -0.53600
O1408       O  0.21005964  0.55888220  0.87319290    -0.98200
O1409       O  0.13293092  0.98916329  0.88142501    -0.55500
O1410       O  0.22287213  0.98335129  0.89666442    -0.74800
C1411       C  0.24279356  0.95046227  0.90261322     0.97500
O1412       O  0.30986613  0.87117005  0.82878470    -0.63600
O1413       O  0.12351225  0.89277988  0.72607420    -0.58400
O1414       O  0.24611920  0.86098210  0.79124364    -0.95100
O1415       O  0.17760578  0.86714745  0.78398457    -0.93600
O1416       O  0.21531290  0.89372457  0.66297208    -0.93900
O1417       O  0.29281519  0.89459907  0.68159839    -0.92700
C1418       C  0.21327880  0.84719919  0.78882621     1.16400
H1419       H  0.14967783  0.96265542  0.69405231     0.32300
H1420       H  0.30735180  0.94416638  0.74051489     0.43200
H1421       H  0.18488495  0.92717278  0.84545513     0.36700
H1422       H  0.19904492  0.56337474  0.79457048     0.33200
H1423       H  0.28276931  0.95353589  0.62753456     0.25000
H1424       H  0.31995763  0.57058879  0.79279135     0.30900
H1425       H  0.23995124  0.55098183  0.87544715     0.36800
H1426       H  0.18747997  0.89353710  0.67291003     0.31300
H1427       H  0.10124651  0.88432555  0.74055529     0.30100
H1428       H  0.09971593  0.89650127  0.81486491     0.31800
H1429       H  0.14538401  0.96487902  0.89265776     0.30800
H1430       H  0.29562060  0.87964967  0.70514428     0.34800
H1431       H  0.29441986  0.85699036  0.84583757     0.27500
H1432       H  0.12510347  0.59784097  0.77014844     0.31800
H1433       H  0.11258852  0.55840037  0.83134045     0.34600
H1434       H  0.10940875  0.90966253  0.70650647     0.27200
H1435       H  0.31786706  0.85446999  0.80659503     0.40100
H1436       H  0.33398636  0.50412813  0.70764412     0.30100
H1437       H  0.27706243  0.48960722  0.64920784     0.37800
H1438       H  0.11224066  0.98281653  0.86367439     0.29600
H1439       H  0.28366985  0.57205874  0.82170288     0.29700
H1440       H  0.08908371  0.57949836  0.75665789     0.29900
C1441       C  0.95942684  0.44030570  0.34696964     0.85400
C1442       C  0.97454380  0.46551129  0.31774345    -0.54800
C1443       C  0.96038999  0.46078569  0.28182224     0.08300
C1444       C  0.93403031  0.42885059  0.27896285     0.19300
C1445       C  0.91244525  0.44850979  0.34237143    -0.55600
C1446       C  0.89901269  0.44222082  0.30719979     0.08400
C1447       C  0.97332291  0.40043545  0.33260050    -0.55100
C1448       C  0.96021824  0.39359005  0.29741376     0.09000
H1449       H  0.99267267  0.48635418  0.32570091     0.13500
H1450       H  0.92279482  0.42298637  0.25049728    -0.00700
H1451       H  0.89144792  0.46000136  0.36486740     0.13800
H1452       H  0.98964181  0.37834127  0.35032132     0.13600
C1453       C  0.71714455  0.25979934  0.34868195     0.85400
C1454       C  0.70215023  0.23448537  0.31929733    -0.54800
C1455       C  0.71621471  0.23932664  0.28327338     0.08300
C1456       C  0.74221884  0.27166089  0.28051164     0.19300
C1457       C  0.76413231  0.25196416  0.34316701    -0.55600
C1458       C  0.77763938  0.25857902  0.30794009     0.08400
C1459       C  0.70271315  0.29967464  0.33518911    -0.55100
C1460       C  0.71546686  0.30674675  0.29987203     0.09000
H1461       H  0.68415975  0.21348356  0.32709104     0.13500
H1462       H  0.75326985  0.27772225  0.25197329    -0.00700
H1463       H  0.78504209  0.24019599  0.36506559     0.13800
H1464       H  0.68622305  0.32161850  0.35354796     0.13600
C1465       C  0.93361017  0.30567644  0.49415202     0.85400
C1466       C  0.89121573  0.29918182  0.50650410    -0.54800
C1467       C  0.88445081  0.26386041  0.49811389     0.08300
C1468       C  0.92009338  0.23892926  0.47689270     0.19300
C1469       C  0.96346994  0.27397782  0.01187484    -0.55600
C1470       C  0.95548212  0.23877529  0.00473443     0.08400
C1471       C  0.93694305  0.29678775  0.45183351    -0.55100
C1472       C  0.93006882  0.26219389  0.44210283     0.09000
H1473       H  0.86958129  0.32047522  0.02162319     0.13500
H1474       H  0.91330459  0.21109410  0.46866235    -0.00700
H1475       H  0.98710662  0.27956705  0.03081111     0.13800
H1476       H  0.94544928  0.31619859  0.43106935     0.13600
C1477       C  0.74449951  0.39425905  0.49556608     0.85400
C1478       C  0.78678476  0.40113200  0.50759800    -0.54800
C1479       C  0.79338416  0.43644864  0.49922091     0.08300
C1480       C  0.75769281  0.46082156  0.47837516     0.19300
C1481       C  0.71482722  0.42719219  0.01499311    -0.55600
C1482       C  0.72263968  0.46223701  0.00744678     0.08400
C1483       C  0.74152690  0.40244746  0.45328554    -0.55100
C1484       C  0.74832062  0.43688005  0.44345986     0.09000
H1485       H  0.80893454  0.38126054  0.02233811     0.13500
H1486       H  0.76422170  0.48866184  0.47014797    -0.00700
H1487       H  0.69183696  0.42187968  0.03504195     0.13800
H1488       H  0.73338882  0.38260892  0.43260287     0.13600
C1489       C  0.96760979  0.00903460  0.18518039     0.85400
C1490       C  0.95088253  0.04784881  0.20050824    -0.54800
C1491       C  0.96414174  0.05487557  0.23544061     0.08300
C1492       C  0.99171411  0.02000587  0.25353052     0.19300
C1493       C  0.51491847  0.50377611  0.19083889    -0.55600
C1494       C  0.52624892  0.00818972  0.22636198     0.08400
C1495       C  0.95306070  0.48158775  0.21419043    -0.55100
C1496       C  0.96614146  0.48681987  0.25032182     0.09000
H1497       H  0.93407939  0.06982099  0.18289332     0.13500
H1498       H  0.50033866  0.02749550  0.28234082    -0.00700
H1499       H  0.53690970  0.49571088  0.16856793     0.13800
H1500       H  0.93616952  0.45990488  0.20589143     0.13600
C1501       C  0.49487799  0.13895454  0.04086402     0.85400
C1502       C  0.96616161  0.17012979  0.02022533    -0.54800
C1503       C  0.97552036  0.20510413  0.02609616     0.08300
C1504       C  0.51113374  0.20567353  0.05383077     0.19300
C1505       C  0.53784954  0.14323272  0.02812639    -0.55600
C1506       C  0.54598611  0.17857772  0.03362625     0.08400
C1507       C  0.99289352  0.14916644  0.08183749    -0.55100
C1508       C  0.49975934  0.18507053  0.09020218     0.09000
H1509       H  0.94151076  0.16431337  0.50255485     0.13500
H1510       H  0.51947910  0.23327940  0.06044408    -0.00700
H1511       H  0.55957046  0.12056164  0.01557353     0.13800
H1512       H  0.98380232  0.13115958  0.10369546     0.13600
C1513       C  0.68253480  0.06342403  0.04294067     0.85400
C1514       C  0.71259649  0.03095164  0.02452641    -0.54800
C1515       C  0.70323736  0.49601417  0.03004244     0.08300
C1516       C  0.66546414  0.49715404  0.05645246     0.19300
C1517       C  0.64083974  0.05852909  0.02765610    -0.55600
C1518       C  0.63194962  0.02351746  0.03328043     0.08400
C1519       C  0.68187847  0.05417770  0.08502913    -0.55100
C1520       C  0.67282654  0.02006625  0.09321870     0.09000
H1521       H  0.73873078  0.03456014  0.50616462     0.13500
H1522       H  0.65681748  0.46976976  0.06325088    -0.00700
H1523       H  0.62046913  0.08062989  0.01337509     0.13800
H1524       H  0.68991437  0.07288200  0.10690331     0.13600
C1525       C  0.71054623  0.19200741  0.18636685     0.85400
C1526       C  0.72873997  0.15305229  0.19966608    -0.54800
C1527       C  0.71639912  0.14475442  0.23460943     0.08300
C1528       C  0.68805119  0.17855863  0.25470660     0.19300
C1529       C  0.66405987  0.19568201  0.19211474    -0.55600
C1530       C  0.65198550  0.18923606  0.22778108     0.08400
C1531       C  0.72326952  0.21898034  0.21530507    -0.55100
C1532       C  0.71092105  0.21299597  0.25151861     0.09000
H1533       H  0.74574017  0.13186698  0.18076128     0.13500
H1534       H  0.67840899  0.17178529  0.28354352    -0.00700
H1535       H  0.64202210  0.20380314  0.17033418     0.13800
H1536       H  0.73868068  0.24167193  0.20705922     0.13600
Zr1537     Zr  0.92117263  0.43808521  0.47339919     2.17500
O1538       O  0.87307154  0.41430847  0.43139748    -0.52400
O1539       O  0.92216916  0.37120939  0.48193106    -0.75600
O1540       O  0.94563659  0.43134691  0.40993167    -0.82400
O1541       O  0.84400309  0.44873270  0.04392862    -0.84200
O1542       O  0.99999798  0.45993564  0.39878172    -0.79800
O1543       O  0.85035244  0.46257585  0.48293713    -0.91400
O1544       O  0.97011716  0.34826604  0.02384351    -0.77400
O1545       O  0.99302571  0.41921664  0.47893970    -0.86900
O1546       O  0.92878327  0.41952537  0.03784467    -0.86600
O1547       O  0.95066971  0.49159186  0.45411346    -0.73300
O1548       O  0.89214705  0.49361053  0.00824342    -0.85400
Zr1549     Zr  0.50250783  0.00756090  0.06216162     2.26400
Zr1550     Zr  0.52345058  0.47230623  0.46437708     2.06300
Zr1551     Zr  0.90082225  0.47460638  0.07288069     2.10000
Zr1552     Zr  0.00042829  0.40059176  0.04432809     1.78800
O1553       O  0.84419309  0.02498071  0.09179527    -0.94300
O1554       O  0.54933157  0.35591729  0.00657595    -0.42100
O1555       O  0.97257038  0.45488710  0.08087605    -0.78700
O1556       O  0.53318681  0.45292444  0.02667123    -0.97400
O1557       O  0.99493570  0.02671292  0.99824586    -0.90700
O1558       O  0.92997894  0.02862190  0.05580172    -0.93500
C1559       C  0.94179235  0.34442867  0.50168030     1.00200
C1560       C  0.83126383  0.45055750  0.00949615     1.13200
C1561       C  0.97034993  0.44389224  0.38778646     1.03900
O1562       O  0.57591916  0.42030250  0.44348107    -0.95700
O1563       O  0.58403163  0.49461193  0.49515160    -0.91400
O1564       O  0.56566758  0.02513142  0.05060383    -0.84600
C1565       C  0.59151742  0.01446845  0.02454032     1.10600
O1566       O  0.86017342  0.05749922  0.45734344    -0.97700
Zr1567     Zr  0.92382727  0.04566228  0.99083978     1.88900
O1568       O  0.50192322  0.07447767  0.05818059    -0.74300
O1569       O  0.54741205  0.01827003  0.41917181    -0.53600
O1570       O  0.93037242  0.07427789  0.43153071    -0.98200
O1571       O  0.88028013  0.10049974  0.01880372    -0.55500
O1572       O  0.96171831  0.09469755  0.00684060    -0.74800
C1573       C  0.98526718  0.09989588  0.03412949     0.97500
O1574       O  0.55524951  0.47966630  0.10576033    -0.63600
O1575       O  0.87857123  0.43379847  0.12064267    -0.58400
O1576       O  0.97310179  0.02648091  0.12237091    -0.95100
O1577       O  0.93243769  0.48220255  0.13425058    -0.93600
O1578       O  0.98737235  0.37146501  0.10415625    -0.93900
O1579       O  0.55872723  0.38592473  0.08495904    -0.92700
C1580       C  0.95634229  0.00609236  0.14467979     1.16400
H1581       H  0.91347405  0.40028926  0.04497900     0.32300
H1582       H  0.56192561  0.44618404  0.03183206     0.43200
H1583       H  0.92013521  0.04982107  0.07221875     0.36700
H1584       H  0.94284506  0.99974207  0.42885608     0.33200
H1585       H  0.55072467  0.33180640  0.02006817     0.25000
H1586       H  0.52334270  0.02774737  0.40345228     0.30900
H1587       H  0.92488618  0.10161912  0.43705109     0.36800
H1588       H  0.95740949  0.37294524  0.10513853     0.31300
H1589       H  0.86509064  0.45088202  0.14077381     0.30100
H1590       H  0.82553831  0.02776938  0.06986916     0.31800
H1591       H  0.88315771  0.12155180  0.00178070     0.30800
H1592       H  0.58092740  0.39700299  0.07333981     0.34800
H1593       H  0.54461860  0.45794706  0.11631668     0.27500
H1594       H  0.88910170  0.39520420  0.41439765     0.31800
H1595       H  0.86113331  0.03553914  0.44019923     0.34600
H1596       H  0.85639562  0.42265506  0.10915638     0.27200
H1597       H  0.57947360  0.46779425  0.09088356     0.40100
H1598       H  0.59825048  0.41975014  0.46195300     0.30100
H1599       H  0.53483442  0.35003745  0.48584478     0.37800
H1600       H  0.89330150  0.10641842  0.04269012     0.29600
H1601       H  0.55101579  0.04011268  0.43507015     0.29700
H1602       H  0.86161748  0.43534030  0.41470620     0.29900
Zr1603     Zr  0.51363270  0.17122127  0.22662995     2.17500
O1604       O  0.55827988  0.11903284  0.19477502    -0.52400
O1605       O  0.50769240  0.17612156  0.15680941    -0.75600
O1606       O  0.99731000  0.10751573  0.23675572    -0.82400
O1607       O  0.59374812  0.23224382  0.24859332    -0.84200
O1608       O  0.92948131  0.11588075  0.25161649    -0.79800
O1609       O  0.58651597  0.17259014  0.23272559    -0.91400
O1610       O  0.97655767  0.23079885  0.13646790    -0.77400
O1611       O  0.94487274  0.19066139  0.21015915    -0.86900
O1612       O  0.50863433  0.23603582  0.21087284    -0.86600
O1613       O  0.97511593  0.16215625  0.28373554    -0.73300
O1614       O  0.53425543  0.20220053  0.28227868    -0.85400
Zr1615     Zr  0.91738963  0.27790895  0.30543616     2.26400
Zr1616     Zr  0.90519957  0.18279754  0.26593887     2.06300
Zr1617     Zr  0.52657464  0.26755577  0.26691821     2.10000
Zr1618     Zr  0.94009319  0.25534445  0.19403787     1.78800
O1619       O  0.57316734  0.28061725  0.31618038    -0.94300
O1620       O  0.89180895  0.23418856  0.15091098    -0.42100
O1621       O  0.95695485  0.28730085  0.24985535    -0.78700
O1622       O  0.89792184  0.24774138  0.24852869    -0.97400
O1623       O  0.92402641  0.21353356  0.32185398    -0.90700
O1624       O  0.98734019  0.25890234  0.32194774    -0.93500
C1625       C  0.49431009  0.19934943  0.13027256     1.00200
C1626       C  0.60816578  0.19822837  0.23823241     1.13200
C1627       C  0.96404352  0.09499973  0.24340942     1.03900
O1628       O  0.86189432  0.16819782  0.21458321    -0.95700
O1629       O  0.83692734  0.21656465  0.28539761    -0.91400
O1630       O  0.84390091  0.27519992  0.30527331    -0.84600
C1631       C  0.82215813  0.24979064  0.29819269     1.10600
O1632       O  0.54997947  0.14046483  0.34452645    -0.97700
Zr1633     Zr  0.99415729  0.19414865  0.33782450     1.88900
O1634       O  0.92320794  0.27292913  0.37550065    -0.74300
O1635       O  0.87291812  0.14642002  0.31117739    -0.53600
O1636       O  0.97406096  0.14086289  0.37030655    -0.98200
O1637       O  0.54793768  0.21064905  0.37792833    -0.55500
O1638       O  0.95810897  0.21720788  0.39534584    -0.74800
C1639       C  0.93649244  0.24941871  0.40184944     0.97500
O1640       O  0.88428139  0.33372691  0.34000722    -0.63600
O1641       O  0.55530405  0.30751127  0.22254467    -0.58400
O1642       O  0.93023386  0.33992805  0.28663486    -0.95100
O1643       O  0.99929713  0.33350977  0.28228595    -0.93600
O1644       O  0.96204585  0.30857385  0.16320785    -0.93900
O1645       O  0.88351516  0.30643261  0.18218292    -0.92700
C1646       C  0.96334042  0.35358050  0.28616682     1.16400
H1647       H  0.52674642  0.23939027  0.19015307     0.32300
H1648       H  0.87036852  0.25768571  0.24100755     0.43200
H1649       H  0.99450644  0.27400850  0.34268179     0.36700
H1650       H  0.97950047  0.13714016  0.29389075     0.33200
H1651       H  0.89455647  0.24785752  0.12706600     0.25000
H1652       H  0.85952260  0.12942310  0.29541449     0.30900
H1653       H  0.98612002  0.14103563  0.39587212     0.36800
H1654       H  0.96219232  0.32749593  0.18361639     0.31300
H1655       H  0.57705350  0.31676439  0.23687208     0.30100
H1656       H  0.58962648  0.29776939  0.30430603     0.31800
H1657       H  0.53539998  0.23403202  0.39135991     0.30800
H1658       H  0.88165908  0.32240000  0.20528290     0.34800
H1659       H  0.86653826  0.32450247  0.35910660     0.27500
H1660       H  0.57639272  0.13057711  0.17784972     0.31800
H1661       H  0.55706470  0.13174096  0.31824907     0.34600
H1662       H  0.57010649  0.29016990  0.20322894     0.27200
H1663       H  0.90581722  0.34241979  0.35518409     0.40100
H1664       H  0.84394731  0.19235880  0.20891541     0.30100
H1665       H  0.90343274  0.20768258  0.14472505     0.37800
H1666       H  0.56776657  0.21858562  0.36003640     0.29600
H1667       H  0.89582188  0.12970275  0.32342764     0.29700
H1668       H  0.54080674  0.10771960  0.17706541     0.29900
Zr1669     Zr  0.75604731  0.26223662  0.47411328     2.17500
O1670       O  0.80494478  0.28281330  0.43023997    -0.52400
O1671       O  0.75630371  0.32872979  0.48326389    -0.75600
O1672       O  0.72950315  0.27084785  0.41164764    -0.82400
O1673       O  0.83362444  0.25428894  0.04501629    -0.84200
O1674       O  0.67825730  0.23836573  0.40093737    -0.79800
O1675       O  0.82702031  0.23869816  0.48207766    -0.91400
O1676       O  0.70801317  0.35324052  0.02712671    -0.77400
O1677       O  0.68424380  0.28132611  0.48110555    -0.86900
O1678       O  0.74909523  0.28232214  0.04004761    -0.86600
O1679       O  0.72728533  0.20809102  0.45561960    -0.73300
O1680       O  0.78644645  0.20787652  0.00992146    -0.85400
Zr1681     Zr  0.67544051  0.19493344  0.06404424     2.26400
Zr1682     Zr  0.65455398  0.22692520  0.46548622     2.06700
Zr1683     Zr  0.77701919  0.22776857  0.07455355     2.10000
Zr1684     Zr  0.67726942  0.30110074  0.04670758     1.78800
O1685       O  0.83178361  0.17877593  0.09578806    -0.94300
O1686       O  0.62904798  0.34786705  0.01348495    -0.42100
O1687       O  0.70507906  0.24743326  0.08292230    -0.78700
O1688       O  0.64475537  0.24917661  0.02988993    -0.97400
O1689       O  0.68693030  0.18049278  0.00220442    -0.90700
O1690       O  0.74711984  0.17409381  0.05826068    -0.93500
C1691       C  0.73608615  0.35576605  0.50292226     1.00200
C1692       C  0.84683778  0.25084455  0.01050243     1.13200
C1693       C  0.70642561  0.25613392  0.38966368     1.03900
O1694       O  0.59997640  0.27723383  0.44644660    -0.95700
O1695       O  0.59429251  0.20405751  0.49482551    -0.91400
O1696       O  0.61105989  0.17924024  0.05332989    -0.84600
C1697       C  0.58651294  0.18790594  0.02625008     1.10600
O1698       O  0.81880969  0.14427977  0.45881209    -0.97700
Zr1699     Zr  0.75419572  0.15521948  0.49336216     1.88900
O1700       O  0.67437739  0.12846189  0.05874688    -0.74300
O1701       O  0.63150459  0.18498779  0.41915442    -0.53600
O1702       O  0.74774888  0.12505095  0.43226757    -0.98200
O1703       O  0.79987480  0.10309252  0.02083756    -0.55500
O1704       O  0.71899830  0.10582228  0.01175815    -0.74800
C1705       C  0.69242540  0.10189548  0.03708629     0.97500
O1706       O  0.62241271  0.22252441  0.10911160    -0.63600
O1707       O  0.79935496  0.26753667  0.12352451    -0.58400
O1708       O  0.70482227  0.17615983  0.12316470    -0.95100
O1709       O  0.74461583  0.21930965  0.13572895    -0.93600
O1710       O  0.68749409  0.33228942  0.10637640    -0.93900
O1711       O  0.61821086  0.31470150  0.08896574    -0.92700
C1712       C  0.72108418  0.19648494  0.14597295     1.16400
H1713       H  0.76417435  0.30168223  0.04739537     0.32300
H1714       H  0.61595550  0.25580186  0.03533227     0.43200
H1715       H  0.75674885  0.15307502  0.07448899     0.36700
H1716       H  0.73507782  0.20009556  0.43007191     0.33200
H1717       H  0.63050283  0.37217909  0.02602965     0.25000
H1718       H  0.65685427  0.16929442  0.40925713     0.30900
H1719       H  0.72131754  0.11617492  0.43380758     0.36800
H1720       H  0.71747725  0.32824895  0.10942889     0.31300
H1721       H  0.81264799  0.24986523  0.14282487     0.30100
H1722       H  0.83289072  0.15834866  0.07674826     0.31800
H1723       H  0.79700936  0.08107325  0.00487172     0.30800
H1724       H  0.59493264  0.30889336  0.07419401     0.34800
H1725       H  0.63313623  0.24400827  0.12026380     0.27500
H1726       H  0.78956038  0.30139127  0.41283213     0.31800
H1727       H  0.81863033  0.16725590  0.44365754     0.34600
H1728       H  0.82174662  0.27860794  0.11219799     0.27200
H1729       H  0.59839345  0.23467986  0.09464656     0.40100
H1730       H  0.57855301  0.27783860  0.46617426     0.30100
H1731       H  0.63993821  0.34911274  0.48788023     0.37800
H1732       H  0.78825409  0.09793547  0.04573876     0.29600
H1733       H  0.61805731  0.16734514  0.43388643     0.29700
H1734       H  0.81616469  0.26082851  0.41418265     0.29900
Zr1735     Zr  0.66243020  0.03039355  0.23203323     2.17500
O1736       O  0.61135579  0.08583724  0.24834129    -0.52400
O1737       O  0.66446647  0.03040171  0.16108357    -0.75600
O1738       O  0.68535651  0.09114967  0.22981619    -0.82400
O1739       O  0.58378847  0.47115349  0.25536972    -0.84200
O1740       O  0.74963118  0.08449165  0.25383380    -0.79800
O1741       O  0.59234058  0.02237244  0.22295860    -0.91400
O1742       O  0.69991448  0.47405154  0.13951719    -0.77400
O1743       O  0.73110055  0.00957753  0.21177135    -0.86900
O1744       O  0.66744140  0.46613949  0.21435479    -0.86600
O1745       O  0.70365634  0.03826303  0.28632892    -0.73300
O1746       O  0.64502996  0.49791558  0.28699128    -0.85400
Zr1747     Zr  0.76025369  0.42243448  0.30579286     2.26400
Zr1748     Zr  0.77286070  0.01735961  0.26568466     2.06300
Zr1749     Zr  0.65091196  0.43329025  0.26952476     2.10000
Zr1750     Zr  0.73630936  0.44605658  0.19541613     1.78800
O1751       O  0.60247021  0.41822013  0.31650519    -0.94300
O1752       O  0.78628681  0.46549164  0.15268083    -0.42100
O1753       O  0.72050850  0.41315592  0.25083870    -0.78700
O1754       O  0.77880383  0.45304658  0.24923063    -0.97400
O1755       O  0.75478245  0.48653014  0.32368813    -0.90700
O1756       O  0.69064786  0.44107438  0.32465664    -0.93500
C1757       C  0.67761749  0.00682092  0.13381244     1.00200
C1758       C  0.57071581  0.50111336  0.23628802     1.13200
C1759       C  0.71673393  0.10444272  0.24103231     1.03900
O1760       O  0.81588240  0.03108181  0.21335419    -0.95700
O1761       O  0.84132900  0.98400754  0.28246956    -0.91400
O1762       O  0.83293324  0.42647076  0.30614963    -0.84600
C1763       C  0.85492333  0.45131328  0.29823018     1.10600
O1764       O  0.63225068  0.06016190  0.35457696    -0.97700
Zr1765     Zr  0.68493617  0.50584595  0.34163087     1.88900
O1766       O  0.75378200  0.42451456  0.37630312    -0.74300
O1767       O  0.80603528  0.05261494  0.31139390    -0.53600
O1768       O  0.70992979  0.06010092  0.37207133    -0.98200
O1769       O  0.63507512  0.48666144  0.38495922    -0.55500
O1770       O  0.72320112  0.48213543  0.39702588    -0.74800
C1771       C  0.74243497  0.44897455  0.40307521     0.97500
O1772       O  0.80853033  0.36883985  0.32761098    -0.63600
O1773       O  0.62320571  0.39533231  0.22231903    -0.58400
O1774       O  0.74506106  0.36041627  0.28958591    -0.95100
O1775       O  0.67621186  0.36706140  0.28577688    -0.93600
O1776       O  0.71191520  0.39234778  0.16755677    -0.93900
O1777       O  0.79107102  0.39453281  0.17818590    -0.92700
C1778       C  0.71202476  0.34688726  0.28927231     1.16400
H1779       H  0.64893963  0.46336627  0.19399736     0.32300
H1780       H  0.80629157  0.44283866  0.24114385     0.43200
H1781       H  0.68349477  0.42591834  0.34522487     0.36700
H1782       H  0.69898753  0.06414893  0.29459028     0.33200
H1783       H  0.78252764  0.45306251  0.12817125     0.25000
H1784       H  0.82280502  0.06691667  0.29585572     0.30900
H1785       H  0.69974546  0.06012690  0.39852086     0.36800
H1786       H  0.68677086  0.40319367  0.15391447     0.31300
H1787       H  0.60214557  0.38453513  0.23627901     0.30100
H1788       H  0.59812683  0.44002659  0.33413482     0.31800
H1789       H  0.63412984  0.50401748  0.40692984     0.30800
H1790       H  0.79236356  0.37679262  0.19958194     0.34800
H1791       H  0.79300678  0.35387102  0.34373146     0.27500
H1792       H  0.62400032  0.10021018  0.26751287     0.31800
H1793       H  0.61553773  0.06276637  0.33135684     0.34600
H1794       H  0.60751823  0.41358996  0.20480101     0.27200
H1795       H  0.81693790  0.35311176  0.30482341     0.40100
H1796       H  0.82640531  0.00628621  0.20158149     0.30100
H1797       H  0.77864665  0.98708014  0.14806377     0.37800
H1798       H  0.64800756  0.46198175  0.39503332     0.29600
H1799       H  0.78391730  0.07187460  0.32206098     0.29700
H1800       H  0.58970687  0.07676645  0.26314665     0.29900
C1801       C  0.95999168  0.44074104  0.84707326     0.85400
C1802       C  0.97524625  0.46566516  0.81771208    -0.54800
C1803       C  0.96113642  0.46072800  0.78181491     0.08300
C1804       C  0.93498123  0.42857007  0.77906084     0.19300
C1805       C  0.91292187  0.44892787  0.84210603    -0.55600
C1806       C  0.89968525  0.44229435  0.80689868     0.08400
C1807       C  0.97394033  0.40071272  0.83315684    -0.55100
C1808       C  0.96105244  0.39343056  0.79801755     0.09000
H1809       H  0.99312563  0.48671938  0.82562473     0.13500
H1810       H  0.92404829  0.42239376  0.75056566    -0.00700
H1811       H  0.89171185  0.46059805  0.86438881     0.13800
H1812       H  0.99005475  0.37880441  0.85121113     0.13600
C1813       C  0.71884754  0.26011329  0.84940170     0.85400
C1814       C  0.70429614  0.23424422  0.82024474    -0.54800
C1815       C  0.71796108  0.23917331  0.78407908     0.08300
C1816       C  0.74320167  0.27199545  0.78103579     0.19300
C1817       C  0.76579330  0.25301133  0.84369018    -0.55600
C1818       C  0.77873350  0.25940176  0.80830593     0.08400
C1819       C  0.70367359  0.29977009  0.83584605    -0.55100
C1820       C  0.71620423  0.30691009  0.80047744     0.09000
H1821       H  0.68700189  0.21280093  0.82831872     0.13500
H1822       H  0.75398260  0.27813824  0.75242279    -0.00700
H1823       H  0.78722119  0.24201509  0.86558657     0.13800
H1824       H  0.68712320  0.32162174  0.85427549     0.13600
C1825       C  0.93352718  0.30571439  0.99323617     0.85400
C1826       C  0.89139053  0.29935722  0.00671956    -0.54800
C1827       C  0.88437257  0.26397518  0.99891342     0.08300
C1828       C  0.91946970  0.23889705  0.97713723     0.19300
C1829       C  0.96310073  0.27384138  0.51318352    -0.55600
C1830       C  0.95545920  0.23860206  0.50535920     0.08400
C1831       C  0.93573931  0.29653011  0.95100337    -0.55100
C1832       C  0.92880277  0.26177857  0.94192338     0.09000
H1833       H  0.86900087  0.32018150  0.52111478     0.13500
H1834       H  0.91239011  0.21107470  0.96931219    -0.00700
H1835       H  0.98608901  0.27941063  0.53286586     0.13800
H1836       H  0.94395335  0.31570873  0.92985096     0.13600
C1837       C  0.74457203  0.39520247  0.99575028     0.85400
C1838       C  0.78684869  0.40197567  0.00786987    -0.54800
C1839       C  0.79364421  0.43718975  0.99932569     0.08300
C1840       C  0.75821062  0.46162441  0.97848452     0.19300
C1841       C  0.71471651  0.42610980  0.51502612    -0.55600
C1842       C  0.72222402  0.46124460  0.50746127     0.08400
C1843       C  0.74187741  0.40326170  0.95344151    -0.55100
C1844       C  0.74911495  0.43757296  0.94366225     0.09000
H1845       H  0.80895187  0.38045503  0.52202393     0.13500
H1846       H  0.76489209  0.48941349  0.97023891    -0.00700
H1847       H  0.69185898  0.42068366  0.53516909     0.13800
H1848       H  0.73380775  0.38342697  0.93272236     0.13600
C1849       C  0.96734559  0.00703119  0.68553270     0.85400
C1850       C  0.95094605  0.04640702  0.69977477    -0.54800
C1851       C  0.96392640  0.05420343  0.73460422     0.08300
C1852       C  0.99119032  0.01965981  0.75357716     0.19300
C1853       C  0.51398896  0.50183497  0.69058266    -0.55600
C1854       C  0.52761979  0.00746456  0.72535674     0.08400
C1855       C  0.95282944  0.48193098  0.71437398    -0.55100
C1856       C  0.96606850  0.48721311  0.75045020     0.09000
H1857       H  0.93433395  0.06799546  0.68162814     0.13500
H1858       H  0.50270235  0.02568031  0.78194156    -0.00700
H1859       H  0.53568275  0.49295421  0.66832749     0.13800
H1860       H  0.93579464  0.46030908  0.70621973     0.13600
C1861       C  0.49449069  0.13833094  0.53990690     0.85400
C1862       C  0.96586250  0.16967878  0.52078069    -0.54800
C1863       C  0.97530692  0.20467047  0.52666662     0.08300
C1864       C  0.51127064  0.20455713  0.55426310     0.19300
C1865       C  0.53712812  0.14286126  0.52643644    -0.55600
C1866       C  0.54561140  0.17791421  0.53288306     0.08400
C1867       C  0.99218202  0.14866591  0.58255784    -0.55100
C1868       C  0.50100317  0.18287694  0.59031154     0.09000
H1869       H  0.94182689  0.16461539  0.00208414     0.13500
H1870       H  0.51971871  0.23205224  0.56127698    -0.00700
H1871       H  0.55855221  0.12045969  0.51300157     0.13800
H1872       H  0.98293644  0.13072524  0.60440693     0.13600
C1873       C  0.68411880  0.06194257  0.54319012     0.85400
C1874       C  0.71369995  0.02961103  0.52403775    -0.54800
C1875       C  0.70254887  0.49498520  0.53004492     0.08300
C1876       C  0.66508229  0.49600623  0.55693461     0.19300
C1877       C  0.64203484  0.05742172  0.52861879    -0.55600
C1878       C  0.63304775  0.02244394  0.53405904     0.08400
C1879       C  0.68435089  0.05221301  0.58515708    -0.55100
C1880       C  0.67526019  0.01809438  0.59323705     0.09000
H1881       H  0.73784234  0.03578248  0.00687832     0.13500
H1882       H  0.65645716  0.46856876  0.56355665    -0.00700
H1883       H  0.62135432  0.07982159  0.51500486     0.13800
H1884       H  0.69283425  0.07067487  0.60704411     0.13600
C1885       C  0.71153223  0.19226128  0.68697679     0.85400
C1886       C  0.72837871  0.15283989  0.69988865    -0.54800
C1887       C  0.71614401  0.14473273  0.73492207     0.08300
C1888       C  0.68895862  0.17890502  0.75543175     0.19300
C1889       C  0.66500324  0.19744441  0.69312622    -0.55600
C1890       C  0.65295189  0.19068315  0.72871731     0.08400
C1891       C  0.72558539  0.21836583  0.71612150    -0.55100
C1892       C  0.71293214  0.21262201  0.75237254     0.09000
H1893       H  0.74467800  0.13142173  0.68081544     0.13500
H1894       H  0.67914523  0.17219078  0.78423381    -0.00700
H1895       H  0.64297016  0.20669865  0.67161077     0.13800
H1896       H  0.74182745  0.24051269  0.70794489     0.13600
Zr1897     Zr  0.92193456  0.43804212  0.97360785     2.17500
O1898       O  0.87495543  0.41295073  0.93138836    -0.52400
O1899       O  0.92192210  0.37133828  0.98132481    -0.75600
O1900       O  0.94512158  0.43343588  0.90997676    -0.82400
O1901       O  0.84407752  0.44798357  0.54400667    -0.84200
O1902       O  0.00147078  0.45927593  0.89918369    -0.79800
O1903       O  0.85101527  0.46251621  0.98267915    -0.91400
O1904       O  0.96892751  0.34854275  0.52594070    -0.77400
O1905       O  0.99382837  0.41873444  0.97949726    -0.86900
O1906       O  0.92815136  0.42009478  0.53788467    -0.86600
O1907       O  0.95201678  0.49134625  0.95471969    -0.73300
O1908       O  0.89143966  0.49387201  0.50781313    -0.85400
Zr1909     Zr  0.50225954  0.00742438  0.56157788     2.26400
Zr1910     Zr  0.52376821  0.47373646  0.96289586     2.06300
Zr1911     Zr  0.90030878  0.47557759  0.57254723     2.10000
Zr1912     Zr  0.99995516  0.40119604  0.54371726     1.78800
O1913       O  0.84643446  0.02032583  0.59797287    -0.94300
O1914       O  0.54794438  0.35452872  0.51014520    -0.42100
O1915       O  0.97208171  0.45557484  0.58018405    -0.78700
O1916       O  0.53239351  0.45216459  0.52836168    -0.97400
O1917       O  0.99066423  0.02071397  0.50041325    -0.90700
O1918       O  0.93013120  0.02668984  0.55729390    -0.93500
C1919       C  0.94218809  0.34438249  0.00033359     1.00200
C1920       C  0.83094247  0.45007983  0.50964000     1.13200
C1921       C  0.97082317  0.44461654  0.88796129     1.03900
O1922       O  0.58041440  0.42706823  0.93920916    -0.95700
O1923       O  0.58419492  0.49671564  0.99329396    -0.91400
O1924       O  0.56653590  0.02384100  0.55151194    -0.84600
C1925       C  0.59238892  0.01373908  0.52525460     1.10600
O1926       O  0.85984279  0.05899513  0.95647665    -0.97700
Zr1927     Zr  0.92357938  0.04476336  0.49261364     1.88900
O1928       O  0.50150753  0.07405179  0.55646410    -0.74300
O1929       O  0.54746644  0.01804487  0.92001886    -0.53600
O1930       O  0.93490168  0.07032972  0.92821476    -0.98200
O1931       O  0.87965235  0.09716830  0.52430525    -0.55500
O1932       O  0.96022937  0.09438466  0.50864939    -0.74800
C1933       C  0.98488528  0.09915968  0.53507862     0.97500
O1934       O  0.55572258  0.48006669  0.60573515    -0.63600
O1935       O  0.87436489  0.44135480  0.62386205    -0.58400
O1936       O  0.97305224  0.02353631  0.62258227    -0.95100
O1937       O  0.93288217  0.48187973  0.63391750    -0.93600
O1938       O  0.99050795  0.37134388  0.60398966    -0.93900
O1939       O  0.55702100  0.38631449  0.58722336    -0.92700
C1940       C  0.95650522  0.00314193  0.64508425     1.16400
H1941       H  0.91288251  0.40092932  0.54532603     0.32300
H1942       H  0.56104941  0.44523916  0.53380735     0.43200
H1943       H  0.92036080  0.04741879  0.57427873     0.36700
H1944       H  0.94358208  0.99867149  0.92927238     0.33200
H1945       H  0.54903890  0.33083183  0.52432129     0.25000
H1946       H  0.55496164  0.00392017  0.89611520     0.30900
H1947       H  0.92658509  0.09790287  0.93098119     0.36800
H1948       H  0.96058490  0.37579131  0.60805554     0.31300
H1949       H  0.86029407  0.46117208  0.64121668     0.30100
H1950       H  0.85757196  0.02943470  0.62153544     0.31800
H1951       H  0.88020544  0.11899574  0.50763318     0.30800
H1952       H  0.58020538  0.39437417  0.57391123     0.34800
H1953       H  0.54644366  0.45725945  0.61525421     0.27500
H1954       H  0.89150260  0.39386238  0.91471011     0.31800
H1955       H  0.86372571  0.04156876  0.93443571     0.34600
H1956       H  0.85243344  0.42949186  0.61292091     0.27200
H1957       H  0.58044174  0.46982349  0.59072182     0.40100
H1958       H  0.59573122  0.41756138  0.96212051     0.30100
H1959       H  0.53599847  0.35198621  0.98224547     0.37800
H1960       H  0.89361471  0.10323437  0.54760304     0.29600
H1961       H  0.52241797  0.03604470  0.91385925     0.29700
H1962       H  0.86337476  0.43366162  0.91436893     0.29900
Zr1963     Zr  0.51526331  0.16962810  0.72704756     2.17500
O1964       O  0.56333190  0.11923085  0.69626918    -0.52400
O1965       O  0.50779736  0.17261445  0.65709153    -0.75600
O1966       O  0.99678628  0.10698285  0.73633435    -0.82400
O1967       O  0.59444912  0.23284381  0.74983632    -0.84200
O1968       O  0.92877315  0.11544733  0.75029462    -0.79800
O1969       O  0.58782886  0.17327976  0.73283704    -0.91400
O1970       O  0.97557211  0.23012550  0.63687744    -0.77400
O1971       O  0.94462079  0.19045103  0.71052554    -0.86900
O1972       O  0.50985987  0.23420627  0.71075948    -0.86600
O1973       O  0.97482802  0.16125884  0.78394967    -0.73300
O1974       O  0.53466042  0.20178264  0.78235295    -0.85400
Zr1975     Zr  0.91767805  0.27745535  0.80573614     2.26400
Zr1976     Zr  0.90501667  0.18225619  0.76630797     2.06300
Zr1977     Zr  0.52659949  0.26704403  0.76629171     2.10000
Zr1978     Zr  0.94024714  0.25520466  0.69465472     1.78800
O1979       O  0.57378343  0.28191739  0.81424640    -0.94300
O1980       O  0.88979724  0.23612206  0.65249829    -0.42100
O1981       O  0.95712399  0.28702763  0.75045269    -0.78700
O1982       O  0.89815229  0.24726080  0.74890802    -0.97400
O1983       O  0.92366432  0.21310023  0.82215991    -0.90700
O1984       O  0.98738367  0.25804272  0.82246834    -0.93500
C1985       C  0.49615757  0.19649642  0.63056505     1.00200
C1986       C  0.60915529  0.19907848  0.73905566     1.13200
C1987       C  0.96341983  0.09449709  0.74238682     1.03900
O1988       O  0.85762110  0.16793429  0.71837630    -0.95700
O1989       O  0.83746482  0.21679369  0.78643705    -0.91400
O1990       O  0.84445626  0.27594700  0.80458224    -0.84600
C1991       C  0.82284907  0.25037168  0.79832410     1.10600
O1992       O  0.55268339  0.14361392  0.84898102    -0.97700
Zr1993     Zr  0.99360852  0.19324977  0.83821528     1.88900
O1994       O  0.92238836  0.27173622  0.87549750    -0.74300
O1995       O  0.87549401  0.14554411  0.81326433    -0.53600
O1996       O  0.97286170  0.14033930  0.87080506    -0.98200
O1997       O  0.54774472  0.21168738  0.87767946    -0.55500
O1998       O  0.95735097  0.21624356  0.89573124    -0.74800
C1999       C  0.93549271  0.24841756  0.90195730     0.97500
O2000       O  0.88461873  0.33279944  0.84109547    -0.63600
O2001       O  0.55392417  0.30536866  0.71931351    -0.58400
O2002       O  0.93086696  0.33966480  0.78801841    -0.95100
O2003       O  0.99992793  0.33289494  0.78345528    -0.93600
O2004       O  0.96522326  0.30878428  0.66757585    -0.93900
O2005       O  0.88514724  0.30700718  0.68075346    -0.92700
C2006       C  0.96405361  0.35318471  0.78732113     1.16400
H2007       H  0.52825865  0.23716122  0.69015931     0.32300
H2008       H  0.87069827  0.25727386  0.74116317     0.43200
H2009       H  0.99456141  0.27303483  0.84328957     0.36700
H2010       H  0.97901302  0.13611312  0.79378578     0.33200
H2011       H  0.89298342  0.24909290  0.62831493     0.25000
H2012       H  0.85657252  0.13267776  0.79872900     0.30900
H2013       H  0.94269829  0.14637296  0.87180595     0.36800
H2014       H  0.96351996  0.30542667  0.63979132     0.31300
H2015       H  0.57819023  0.31248886  0.73148721     0.30100
H2016       H  0.56341375  0.30824639  0.82204279     0.31800
H2017       H  0.53420569  0.23393683  0.89232096     0.30800
H2018       H  0.88171070  0.32244533  0.70424458     0.34800
H2019       H  0.86648401  0.32344598  0.85974876     0.27500
H2020       H  0.57851966  0.13155306  0.67727785     0.31800
H2021       H  0.55797910  0.13049456  0.82423024     0.34600
H2022       H  0.56526376  0.28777058  0.69871099     0.27200
H2023       H  0.90608255  0.34106030  0.85671583     0.40100
H2024       H  0.84431064  0.19275263  0.70885929     0.30100
H2025       H  0.90001402  0.20924292  0.64675025     0.37800
H2026       H  0.56630209  0.22159340  0.85987605     0.29600
H2027       H  0.89801735  0.12519821  0.82048805     0.29700
H2028       H  0.54674260  0.10474398  0.68076086     0.29900
Zr2029     Zr  0.75706642  0.26292578  0.97562189     2.17500
O2030       O  0.80597197  0.28666509  0.93423874    -0.52400
O2031       O  0.75666554  0.32958720  0.98411303    -0.75600
O2032       O  0.73361998  0.26827763  0.91227715    -0.82400
O2033       O  0.83352698  0.25331954  0.54335909    -0.84200
O2034       O  0.67832652  0.24099156  0.90153766    -0.79800
O2035       O  0.82740689  0.23729879  0.98459924    -0.91400
O2036       O  0.70806893  0.35212986  0.52680888    -0.77400
O2037       O  0.68522136  0.28221770  0.98179959    -0.86900
O2038       O  0.74863250  0.28176760  0.53860104    -0.86600
O2039       O  0.72764521  0.20934641  0.95630634    -0.73300
O2040       O  0.78577661  0.20770392  0.50911531    -0.85400
Zr2041     Zr  0.67552992  0.19360269  0.56390394     2.26400
Zr2042     Zr  0.65488555  0.22823860  0.96582341     2.06700
Zr2043     Zr  0.77668666  0.22783926  0.57374023     2.10000
Zr2044     Zr  0.67691048  0.30011368  0.54616367     1.78800
O2045       O  0.83356666  0.18252436  0.59758454    -0.94300
O2046       O  0.62836847  0.34708809  0.51356066    -0.42100
O2047       O  0.70469657  0.24649634  0.58237798    -0.78700
O2048       O  0.64474383  0.24781471  0.52972055    -0.97400
O2049       O  0.68686411  0.17920558  0.50195025    -0.90700
O2050       O  0.74737676  0.17361759  0.55819114    -0.93500
C2051       C  0.73615360  0.35675408  0.00335073     1.00200
C2052       C  0.84659233  0.25089470  0.50875454     1.13200
C2053       C  0.70841808  0.25635436  0.89034075     1.03900
O2054       O  0.60101078  0.27964084  0.94802484    -0.95700
O2055       O  0.59495475  0.20424619  0.99509199    -0.91400
O2056       O  0.61133741  0.17722630  0.55205423    -0.84600
C2057       C  0.58624779  0.18697794  0.52555575     1.10600
O2058       O  0.81788046  0.14422496  0.95766994    -0.97700
Zr2059     Zr  0.75401679  0.15601512  0.99337302     1.88900
O2060       O  0.67659235  0.12671644  0.55985352    -0.74300
O2061       O  0.63118143  0.18626803  0.91988660    -0.53600
O2062       O  0.74396825  0.12836303  0.93171579    -0.98200
O2063       O  0.79965725  0.10354610  0.52316436    -0.55500
O2064       O  0.71919501  0.10484047  0.51113605    -0.74800
C2065       C  0.69383464  0.10046579  0.53742031     0.97500
O2066       O  0.62211320  0.22012723  0.60905688    -0.63600
O2067       O  0.79483382  0.27246422  0.62011997    -0.58400
O2068       O  0.70421326  0.17665885  0.62388397    -0.95100
O2069       O  0.74586031  0.21858840  0.63562064    -0.93600
O2070       O  0.68887673  0.32876231  0.60683666    -0.93900
O2071       O  0.61778441  0.31618863  0.58808155    -0.92700
C2072       C  0.72167111  0.19649420  0.64631805     1.16400
H2073       H  0.76389406  0.30098235  0.54595218     0.32300
H2074       H  0.61599075  0.25431991  0.53538461     0.43200
H2075       H  0.75724306  0.15297114  0.57479172     0.36700
H2076       H  0.73544995  0.20124582  0.93080356     0.33200
H2077       H  0.63018933  0.37132657  0.52609232     0.25000
H2078       H  0.65568121  0.17546858  0.90477628     0.30900
H2079       H  0.71654278  0.12144726  0.93340265     0.36800
H2080       H  0.71685410  0.33438281  0.60473179     0.31300
H2081       H  0.80878815  0.25679255  0.64063790     0.30100
H2082       H  0.85769786  0.18771321  0.58336968     0.31800
H2083       H  0.79889975  0.08143166  0.50662482     0.30800
H2084       H  0.59637910  0.30344189  0.57745143     0.34800
H2085       H  0.63163512  0.24272882  0.61904372     0.27500
H2086       H  0.79017330  0.30595122  0.91779654     0.31800
H2087       H  0.81718057  0.16666297  0.94159225     0.34600
H2088       H  0.81646683  0.28408792  0.60812151     0.27200
H2089       H  0.59739378  0.23071478  0.59469922     0.40100
H2090       H  0.58457637  0.26836948  0.92933541     0.30100
H2091       H  0.64087238  0.34990638  0.98791112     0.37800
H2092       H  0.78663336  0.09764072  0.54713926     0.29600
H2093       H  0.62504114  0.16484051  0.93483269     0.29700
H2094       H  0.81734552  0.26571737  0.91692478     0.29900
Zr2095     Zr  0.66384260  0.02955231  0.73174587     2.17500
O2096       O  0.61329662  0.08481160  0.74928756    -0.52400
O2097       O  0.66665323  0.02864304  0.66086918    -0.75600
O2098       O  0.68612624  0.09057887  0.72916861    -0.82400
O2099       O  0.58376897  0.46905908  0.75418668    -0.84200
O2100       O  0.74876244  0.08520510  0.75653487    -0.79800
O2101       O  0.59388209  0.02150225  0.72149219    -0.91400
O2102       O  0.69924185  0.47269007  0.64025498    -0.77400
O2103       O  0.73331997  0.00989095  0.71338535    -0.86900
O2104       O  0.66694049  0.46574653  0.71598818    -0.86600
O2105       O  0.70309206  0.03813816  0.78713875    -0.73300
O2106       O  0.64482678  0.49832361  0.78870972    -0.85400
Zr2107     Zr  0.76124097  0.42254854  0.80610930     2.26400
Zr2108     Zr  0.77295343  0.01823577  0.76846546     2.06300
Zr2109     Zr  0.65106276  0.43340176  0.77167744     2.10000
Zr2110     Zr  0.73556837  0.44572855  0.69633855     1.78800
O2111       O  0.60510857  0.42111647  0.82233669    -0.94300
O2112       O  0.78478323  0.46625811  0.65358348    -0.42100
O2113       O  0.72038449  0.41319006  0.75208768    -0.78700
O2114       O  0.77904223  0.45329928  0.74927640    -0.97400
O2115       O  0.75560881  0.48666698  0.82411619    -0.90700
O2116       O  0.69196683  0.44133104  0.82589643    -0.93500
C2117       C  0.68018020  0.00492393  0.63382231     1.00200
C2118       C  0.57033486  0.49938603  0.73577778     1.13200
C2119       C  0.71650410  0.10451940  0.74189988     1.03900
O2120       O  0.81647783  0.03352650  0.71718824    -0.95700
O2121       O  0.84068995  0.98503658  0.78702836    -0.91400
O2122       O  0.83417211  0.42535630  0.80374521    -0.84600
C2123       C  0.85551494  0.45110942  0.79764321     1.10600
O2124       O  0.62621284  0.05542202  0.85281083    -0.97700
Zr2125     Zr  0.68607938  0.50614192  0.84275573     1.88900
O2126       O  0.75529613  0.42519652  0.87662226    -0.74300
O2127       O  0.80424164  0.05416036  0.81501651    -0.53600
O2128       O  0.70845693  0.06117273  0.86906643    -0.98200
O2129       O  0.63704412  0.48593681  0.88643964    -0.55500
O2130       O  0.72515405  0.48288395  0.89743720    -0.74800
C2131       C  0.74398567  0.44964838  0.90338687     0.97500
O2132       O  0.80835539  0.36943479  0.83047930    -0.63600
O2133       O  0.62390275  0.39229285  0.72727815    -0.58400
O2134       O  0.74577536  0.36060055  0.78964202    -0.95100
O2135       O  0.67679181  0.36727552  0.78755170    -0.93600
O2136       O  0.70951389  0.39279845  0.66862574    -0.93900
O2137       O  0.78927653  0.39341266  0.67885945    -0.92700
C2138       C  0.71268925  0.34708443  0.79011967     1.16400
H2139       H  0.64828819  0.46274915  0.69582553     0.32300
H2140       H  0.80644933  0.44350062  0.74066641     0.43200
H2141       H  0.68523153  0.42615739  0.84662115     0.36700
H2142       H  0.69757844  0.06408269  0.79517301     0.33200
H2143       H  0.77899974  0.45637374  0.62832909     0.25000
H2144       H  0.81872849  0.07073841  0.79984864     0.30900
H2145       H  0.69643136  0.06373761  0.89490742     0.36800
H2146       H  0.68409307  0.40403339  0.65561273     0.31300
H2147       H  0.59728989  0.38923821  0.73836409     0.30100
H2148       H  0.58463191  0.44445753  0.82489803     0.31800
H2149       H  0.63519390  0.50363738  0.90820546     0.30800
H2150       H  0.79373327  0.37801999  0.70205331     0.34800
H2151       H  0.79196925  0.35508642  0.84640665     0.27500
H2152       H  0.62589532  0.09804401  0.76944585     0.31800
H2153       H  0.63184485  0.07730292  0.83828641     0.34600
H2154       H  0.61678495  0.40759204  0.70435315     0.27200
H2155       H  0.81708294  0.35311286  0.80817473     0.40100
H2156       H  0.84086957  0.01342835  0.71743615     0.30100
H2157       H  0.77839236  0.99071146  0.64790636     0.37800
H2158       H  0.65082616  0.46173002  0.89694168     0.29600
H2159       H  0.78118979  0.07133487  0.82711048     0.29700
H2160       H  0.59116446  0.07541053  0.76306569     0.29900
C2161       C  0.95986946  0.94023246  0.34619224     0.85400
C2162       C  0.97601438  0.96472732  0.31690194    -0.54800
C2163       C  0.96212432  0.96003512  0.28087517     0.08300
C2164       C  0.93523504  0.92847178  0.27790022     0.19300
C2165       C  0.91294656  0.94902552  0.34092020    -0.55600
C2166       C  0.89983655  0.94261535  0.30554189     0.08400
C2167       C  0.97324895  0.90011721  0.33231992    -0.55100
C2168       C  0.96048786  0.89308929  0.29705795     0.09000
H2169       H  0.99439774  0.98533882  0.32493737     0.13500
H2170       H  0.92444482  0.92249058  0.24928918    -0.00700
H2171       H  0.89179768  0.96074332  0.36319230     0.13800
H2172       H  0.98905246  0.87805094  0.35037988     0.13600
C2173       C  0.71783887  0.75968892  0.34898993     0.85400
C2174       C  0.70296330  0.73452646  0.31944124    -0.54800
C2175       C  0.71733164  0.73935976  0.28352451     0.08300
C2176       C  0.74337746  0.77165873  0.28102658     0.19300
C2177       C  0.76481414  0.75168639  0.34378845    -0.55600
C2178       C  0.77846522  0.75835385  0.30868268     0.08400
C2179       C  0.70367422  0.79962788  0.33560906    -0.55100
C2180       C  0.71664743  0.80679399  0.30040619     0.09000
H2181       H  0.68487867  0.71357383  0.32712225     0.13500
H2182       H  0.75468657  0.77764163  0.25254943    -0.00700
H2183       H  0.78560771  0.73986314  0.36578524     0.13800
H2184       H  0.68711310  0.82153104  0.35396944     0.13600
C2185       C  0.93245348  0.80569766  0.49323555     0.85400
C2186       C  0.89034654  0.79902817  0.50659072    -0.54800
C2187       C  0.88359782  0.76359018  0.49842891     0.08300
C2188       C  0.91895679  0.73885301  0.47668585     0.19300
C2189       C  0.96360282  0.77396166  0.01366361    -0.55600
C2190       C  0.95575249  0.73873986  0.00625658     0.08400
C2191       C  0.93474677  0.79684909  0.45102011    -0.55100
C2192       C  0.92802591  0.76216278  0.44168494     0.09000
H2193       H  0.86957004  0.82049288  0.02191597     0.13500
H2194       H  0.91220456  0.71096883  0.46861817    -0.00700
H2195       H  0.98686497  0.77961644  0.03300228     0.13800
H2196       H  0.94281410  0.81625904  0.43002164     0.13600
C2197       C  0.74508571  0.89374464  0.49512588     0.85400
C2198       C  0.78740498  0.90037231  0.50720942    -0.54800
C2199       C  0.79422878  0.93560610  0.49881459     0.08300
C2200       C  0.75880050  0.96022361  0.47802298     0.19300
C2201       C  0.71425280  0.92714794  0.01495413    -0.55600
C2202       C  0.72227289  0.96221455  0.00762268     0.08400
C2203       C  0.74231631  0.90200653  0.45280147    -0.55100
C2204       C  0.74939305  0.93642139  0.44309588     0.09000
H2205       H  0.80815116  0.88051870  0.02204245     0.13500
H2206       H  0.76558575  0.98800965  0.46990125    -0.00700
H2207       H  0.69112154  0.92186385  0.03487689     0.13800
H2208       H  0.73410873  0.88228722  0.43203596     0.13600
C2209       C  0.96722715  0.50787729  0.18542491     0.85400
C2210       C  0.95104428  0.54716152  0.19990975    -0.54800
C2211       C  0.96396826  0.55452770  0.23486361     0.08300
C2212       C  0.99090548  0.51981851  0.25366467     0.19300
C2213       C  0.51419214  0.00202581  0.19071913    -0.55600
C2214       C  0.52706620  0.50936231  0.22657065     0.08400
C2215       C  0.95433958  0.98183011  0.21351675    -0.55100
C2216       C  0.96758968  0.98657738  0.24968355     0.09000
H2217       H  0.93463934  0.56898943  0.18189319     0.13500
H2218       H  0.50135825  0.52713399  0.28303837    -0.00700
H2219       H  0.53618356  0.99274060  0.16874646     0.13800
H2220       H  0.93784360  0.95995576  0.20491490     0.13600
C2221       C  0.49458840  0.63890850  0.04120183     0.85400
C2222       C  0.96647734  0.66997976  0.02160379    -0.54800
C2223       C  0.97562717  0.70501722  0.02767182     0.08300
C2224       C  0.51115954  0.70548610  0.05435462     0.19300
C2225       C  0.53699353  0.64351131  0.02712633    -0.55600
C2226       C  0.54531056  0.67875967  0.03279218     0.08400
C2227       C  0.99332304  0.64870524  0.08311269    -0.55100
C2228       C  0.50132386  0.68425503  0.09089996     0.09000
H2229       H  0.94175860  0.66465970  0.50182341     0.13500
H2230       H  0.51967975  0.73303234  0.06092285    -0.00700
H2231       H  0.55838940  0.62100856  0.01383001     0.13800
H2232       H  0.98433371  0.63052931  0.10486661     0.13600
C2233       C  0.68264190  0.56316066  0.04254980     0.85400
C2234       C  0.71293552  0.53081135  0.02437716    -0.54800
C2235       C  0.70268791  0.99618161  0.03003408     0.08300
C2236       C  0.66480569  0.99750662  0.05636328     0.19300
C2237       C  0.64101600  0.55789269  0.02733909    -0.55600
C2238       C  0.63240400  0.52282174  0.03322348     0.08400
C2239       C  0.68208413  0.55412848  0.08473095    -0.55100
C2240       C  0.67345913  0.51991935  0.09314983     0.09000
H2241       H  0.73711942  0.53482387  0.50650368     0.13500
H2242       H  0.65595174  0.97014829  0.06292138    -0.00700
H2243       H  0.62037555  0.57984042  0.01306804     0.13800
H2244       H  0.69006141  0.57297867  0.10649075     0.13600
C2245       C  0.71091998  0.69232370  0.18652181     0.85400
C2246       C  0.72888120  0.65314310  0.19946163    -0.54800
C2247       C  0.71716526  0.64482470  0.23462237     0.08300
C2248       C  0.68928001  0.67863826  0.25509521     0.19300
C2249       C  0.66450023  0.69649732  0.19288586    -0.55600
C2250       C  0.65288089  0.68977707  0.22862462     0.08400
C2251       C  0.72440663  0.71896465  0.21546348    -0.55100
C2252       C  0.71233649  0.71291346  0.25178488     0.09000
H2253       H  0.74539217  0.63193071  0.18029921     0.13500
H2254       H  0.67993595  0.67169704  0.28397037    -0.00700
H2255       H  0.64220644  0.70537641  0.17144375     0.13800
H2256       H  0.73981169  0.74165924  0.20717810     0.13600
Zr2257     Zr  0.92152667  0.93777028  0.47271275     2.17500
O2258       O  0.87285117  0.91576159  0.43009527    -0.52400
O2259       O  0.92059927  0.87129345  0.48147999    -0.75600
O2260       O  0.94624624  0.93060687  0.40919142    -0.82400
O2261       O  0.84435443  0.94728275  0.04405852    -0.84200
O2262       O  0.99943896  0.96088118  0.39842488    -0.79800
O2263       O  0.85091620  0.96232301  0.48313741    -0.91400
O2264       O  0.96981119  0.84853223  0.02564913    -0.77400
O2265       O  0.99348721  0.91906543  0.47781530    -0.86900
O2266       O  0.92840997  0.91987622  0.03810565    -0.86600
O2267       O  0.95064227  0.99171320  0.45415542    -0.73300
O2268       O  0.89180071  0.99358323  0.00772314    -0.85400
Zr2269     Zr  0.50230518  0.50741690  0.06188712     2.26400
Zr2270     Zr  0.52460508  0.97408386  0.46286355     2.06300
Zr2271     Zr  0.90006545  0.97534285  0.07253712     2.10000
Zr2272     Zr  0.00018644  0.90126161  0.04426718     1.78800
O2273       O  0.84688918  0.52434944  0.09578794    -0.94300
O2274       O  0.54715182  0.85339596  0.00767431    -0.42100
O2275       O  0.97167912  0.95558488  0.08048256    -0.78700
O2276       O  0.53296512  0.95317988  0.02672978    -0.97400
O2277       O  0.99196775  0.52070135  0.00050432    -0.90700
O2278       O  0.93082994  0.52816435  0.05682276    -0.93500
C2279       C  0.94128341  0.84422850  0.50010313     1.00200
C2280       C  0.83117861  0.94965125  0.00974721     1.13200
C2281       C  0.97043805  0.94404365  0.38718543     1.03900
O2282       O  0.57965647  0.92528558  0.44015135    -0.95700
O2283       O  0.58480543  0.99688430  0.49385240    -0.91400
O2284       O  0.56651775  0.52325012  0.05126529    -0.84600
C2285       C  0.59197943  0.51354695  0.02466948     1.10600
O2286       O  0.86066818  0.55785418  0.45589503    -0.97700
Zr2287     Zr  0.92509709  0.54520941  0.99188685     1.88900
O2288       O  0.50259573  0.57413279  0.05748115    -0.74300
O2289       O  0.54956698  0.51462360  0.42075449    -0.53600
O2290       O  0.93487290  0.57278483  0.42985094    -0.98200
O2291       O  0.88025068  0.59885892  0.02072882    -0.55500
O2292       O  0.96176440  0.59477462  0.00839287    -0.74800
C2293       C  0.98608962  0.59958417  0.03512202     0.97500
O2294       O  0.55620420  0.98043071  0.10557939    -0.63600
O2295       O  0.87674364  0.93908028  0.12363120    -0.58400
O2296       O  0.97312779  0.52480215  0.12260551    -0.95100
O2297       O  0.93209770  0.98409164  0.13383759    -0.93600
O2298       O  0.99036753  0.87151464  0.10447406    -0.93900
O2299       O  0.56096862  0.88486591  0.08276605    -0.92700
C2300       C  0.95640654  0.50442034  0.14497738     1.16400
H2301       H  0.91327830  0.90060625  0.04552747     0.32300
H2302       H  0.56168872  0.94654860  0.03195742     0.43200
H2303       H  0.92110934  0.54929615  0.07334874     0.36700
H2304       H  0.94297413  0.49937391  0.42872860     0.33200
H2305       H  0.54606778  0.82929661  0.02047332     0.25000
H2306       H  0.52705498  0.52301343  0.40291538     0.30900
H2307       H  0.96418715  0.57459894  0.42935803     0.36800
H2308       H  0.96065706  0.87796620  0.10950641     0.31300
H2309       H  0.86285483  0.95811230  0.14189609     0.30100
H2310       H  0.83890747  0.51569153  0.12083264     0.31800
H2311       H  0.88234981  0.62029960  0.00396223     0.30800
H2312       H  0.58172398  0.89865792  0.07253892     0.34800
H2313       H  0.54679533  0.95760161  0.11490059     0.27500
H2314       H  0.88842318  0.89627301  0.41320518     0.31800
H2315       H  0.85841286  0.53351781  0.44377518     0.34600
H2316       H  0.85475521  0.92717551  0.11286638     0.27200
H2317       H  0.58083212  0.97015668  0.09045027     0.40100
H2318       H  0.59635178  0.91774294  0.46283087     0.30100
H2319       H  0.53659346  0.85083608  0.48271818     0.37800
H2320       H  0.89304172  0.60493946  0.04467541     0.29600
H2321       H  0.55136601  0.53734127  0.43604964     0.29700
H2322       H  0.86235503  0.93708866  0.41341454     0.29900
Zr2323     Zr  0.51474051  0.67095587  0.22779784     2.17500
O2324       O  0.55982776  0.61893421  0.19623403    -0.52400
O2325       O  0.50830184  0.67482075  0.15777629    -0.75600
O2326       O  0.99697563  0.60711099  0.23695870    -0.82400
O2327       O  0.59479977  0.73262280  0.25005596    -0.84200
O2328       O  0.92902126  0.61536335  0.25123678    -0.79800
O2329       O  0.58751750  0.67308160  0.23361746    -0.91400
O2330       O  0.97587114  0.73023099  0.13744656    -0.77400
O2331       O  0.94497981  0.68975657  0.21116350    -0.86900
O2332       O  0.51011815  0.73563536  0.21160048    -0.86600
O2333       O  0.97515460  0.66127821  0.28468930    -0.73300
O2334       O  0.53500452  0.70261387  0.28325022    -0.85400
Zr2335     Zr  0.91751696  0.77763457  0.30558284     2.26400
Zr2336     Zr  0.90526067  0.68200877  0.26683798     2.06300
Zr2337     Zr  0.52735847  0.76782403  0.26736789     2.10000
Zr2338     Zr  0.93963554  0.75442593  0.19493954     1.78800
O2339       O  0.57263910  0.78295222  0.31684898    -0.94300
O2340       O  0.89052563  0.73211056  0.15353141    -0.42100
O2341       O  0.95712228  0.78654648  0.25023551    -0.78700
O2342       O  0.89776408  0.74686241  0.24933764    -0.97400
O2343       O  0.92390087  0.71325249  0.32247064    -0.90700
O2344       O  0.98722165  0.75835042  0.32273917    -0.93500
C2345       C  0.49637305  0.69842720  0.13110045     1.00200
C2346       C  0.60917331  0.69867493  0.23942921     1.13200
C2347       C  0.96363214  0.59458896  0.24307634     1.03900
O2348       O  0.86086093  0.67183732  0.21467567    -0.95700
O2349       O  0.83766526  0.71572322  0.28769024    -0.91400
O2350       O  0.84424471  0.77524024  0.30502649    -0.84600
C2351       C  0.82280231  0.74938882  0.29917795     1.10600
O2352       O  0.55447420  0.64500849  0.34470601    -0.97700
Zr2353     Zr  0.99385643  0.69357365  0.33877100     1.88900
O2354       O  0.92203547  0.77291909  0.37535258    -0.74300
O2355       O  0.87294413  0.64372375  0.31020979    -0.53600
O2356       O  0.97531031  0.63974932  0.37163639    -0.98200
O2357       O  0.54480920  0.71492860  0.38130353    -0.55500
O2358       O  0.95614640  0.71693622  0.39537477    -0.74800
C2359       C  0.93469955  0.74925601  0.40166704     0.97500
O2360       O  0.88616593  0.83475893  0.33905108    -0.63600
O2361       O  0.55779630  0.80480983  0.22135095    -0.58400
O2362       O  0.93054429  0.83934231  0.28543002    -0.95100
O2363       O  0.99960433  0.83277173  0.28337948    -0.93600
O2364       O  0.95949641  0.80831651  0.16365207    -0.93900
O2365       O  0.88292138  0.80562166  0.18396929    -0.92700
C2366       C  0.96366007  0.85298853  0.28601292     1.16400
H2367       H  0.52859647  0.73875928  0.19109906     0.32300
H2368       H  0.87020146  0.75655680  0.24168411     0.43200
H2369       H  0.99428823  0.77347576  0.34350100     0.36700
H2370       H  0.97948456  0.63613892  0.29456554     0.33200
H2371       H  0.89292725  0.74498121  0.12914808     0.25000
H2372       H  0.86112420  0.62613958  0.29378442     0.30900
H2373       H  0.98039181  0.64399195  0.39881622     0.36800
H2374       H  0.98878042  0.80659039  0.16950661     0.31300
H2375       H  0.53464264  0.82304703  0.21145782     0.30100
H2376       H  0.59199855  0.79650357  0.30370840     0.31800
H2377       H  0.53108685  0.73876245  0.39318243     0.30800
H2378       H  0.87801163  0.81870583  0.20877639     0.34800
H2379       H  0.86789006  0.82645569  0.35824969     0.27500
H2380       H  0.57708880  0.63060162  0.17854881     0.31800
H2381       H  0.55881603  0.64146551  0.37226976     0.34600
H2382       H  0.57347746  0.82021917  0.23674311     0.27200
H2383       H  0.90809761  0.84283454  0.35419330     0.40100
H2384       H  0.84147803  0.65693302  0.22572672     0.30100
H2385       H  0.90194838  0.70540626  0.14806872     0.37800
H2386       H  0.56579255  0.72232042  0.36433168     0.29600
H2387       H  0.89584307  0.62775306  0.32324199     0.29700
H2388       H  0.54235127  0.60671739  0.17932234     0.29900
Zr2389     Zr  0.75580848  0.76158513  0.47445539     2.17500
O2390       O  0.80467665  0.78370565  0.43173245    -0.52400
O2391       O  0.75653329  0.82807026  0.48311991    -0.75600
O2392       O  0.73006949  0.77025068  0.41191731    -0.82400
O2393       O  0.83349037  0.75357290  0.04461668    -0.84200
O2394       O  0.67832509  0.73843745  0.40084351    -0.79800
O2395       O  0.82660266  0.73754939  0.48266509    -0.91400
O2396       O  0.70655996  0.85304476  0.02571883    -0.77400
O2397       O  0.68403057  0.78104515  0.48111399    -0.86900
O2398       O  0.74806326  0.78218023  0.03920168    -0.86600
O2399       O  0.72649245  0.70786123  0.45531789    -0.73300
O2400       O  0.78567974  0.70791305  0.00914124    -0.85400
Zr2401     Zr  0.67490451  0.69453118  0.06346712     2.26400
Zr2402     Zr  0.65377046  0.72703078  0.46517867     2.06700
Zr2403     Zr  0.77620184  0.72779667  0.07379942     2.10000
Zr2404     Zr  0.67618587  0.80084673  0.04579296     1.78800
O2405       O  0.83023987  0.67816992  0.09516288    -0.94300
O2406       O  0.62677493  0.84657652  0.01264104    -0.42100
O2407       O  0.70420804  0.74731566  0.08222603    -0.78700
O2408       O  0.64394241  0.74873300  0.02933415    -0.97400
O2409       O  0.68651211  0.68020913  0.00162228    -0.90700
O2410       O  0.74657757  0.67395171  0.05765687    -0.93500
C2411       C  0.73648862  0.85524658  0.50267713     1.00200
C2412       C  0.84671550  0.75108107  0.01008088     1.13200
C2413       C  0.70682200  0.75594246  0.38980598     1.03900
O2414       O  0.60037371  0.77722156  0.44368291    -0.95700
O2415       O  0.59360840  0.70434884  0.49528704    -0.91400
O2416       O  0.61139197  0.67727805  0.05085350    -0.84600
C2417       C  0.58586186  0.68785452  0.02494226     1.10600
O2418       O  0.81550877  0.64251541  0.45513447    -0.97700
Zr2419     Zr  0.75272154  0.65446487  0.49246668     1.88900
O2420       O  0.67570667  0.62782302  0.05906551    -0.74300
O2421       O  0.62872584  0.68457772  0.42063095    -0.53600
O2422       O  0.74382382  0.62496782  0.43147559    -0.98200
O2423       O  0.79854849  0.60324511  0.02189703    -0.55500
O2424       O  0.71734153  0.60591955  0.00967727    -0.74800
C2425       C  0.69233090  0.60161788  0.03633258     0.97500
O2426       O  0.62122768  0.72001095  0.10874160    -0.63600
O2427       O  0.79829826  0.76902961  0.12156903    -0.58400
O2428       O  0.70342842  0.67704624  0.12335090    -0.95100
O2429       O  0.74459101  0.71928356  0.13535272    -0.93600
O2430       O  0.68507436  0.83502486  0.10399632    -0.93900
O2431       O  0.61709031  0.81300855  0.08807911    -0.92700
C2432       C  0.72070943  0.69688520  0.14590704     1.16400
H2433       H  0.76305344  0.80157531  0.04664042     0.32300
H2434       H  0.61519404  0.75530469  0.03506436     0.43200
H2435       H  0.75622686  0.65308585  0.07407025     0.36700
H2436       H  0.73443347  0.69985596  0.42980925     0.33200
H2437       H  0.62869588  0.87120482  0.02426776     0.25000
H2438       H  0.65287505  0.67331050  0.40529540     0.30900
H2439       H  0.71527811  0.62066641  0.43188529     0.36800
H2440       H  0.70922792  0.82002589  0.11615870     0.31300
H2441       H  0.81179557  0.75197043  0.14126564     0.30100
H2442       H  0.82580800  0.67691159  0.12287210     0.31800
H2443       H  0.79795423  0.58156432  0.00471415     0.30800
H2444       H  0.59350404  0.80981369  0.07228548     0.34800
H2445       H  0.63057046  0.74246242  0.11930434     0.27500
H2446       H  0.78915924  0.80278516  0.41489983     0.31800
H2447       H  0.81667533  0.66656117  0.44226400     0.34600
H2448       H  0.82050457  0.78012195  0.10991573     0.27200
H2449       H  0.59663303  0.73075197  0.09428306     0.40100
H2450       H  0.57950126  0.78025374  0.46413338     0.30100
H2451       H  0.63883380  0.84612975  0.48589678     0.37800
H2452       H  0.78495401  0.59687564  0.04539880     0.29600
H2453       H  0.62251872  0.66351652  0.43609909     0.29700
H2454       H  0.81593094  0.76228917  0.41496526     0.29900
Zr2455     Zr  0.66345718  0.53053339  0.23192879     2.17500
O2456       O  0.61218411  0.58569479  0.24851593    -0.52400
O2457       O  0.66576817  0.53043718  0.16099756    -0.75600
O2458       O  0.68653765  0.59110589  0.22985427    -0.82400
O2459       O  0.58307928  0.97020136  0.25564318    -0.84200
O2460       O  0.75030754  0.58475154  0.25489064    -0.79800
O2461       O  0.59330670  0.52311905  0.22251305    -0.91400
O2462       O  0.69844919  0.97401841  0.13951841    -0.77400
O2463       O  0.73259647  0.51044625  0.21309635    -0.86900
O2464       O  0.66560297  0.96572684  0.21596544    -0.86600
O2465       O  0.70326088  0.53815441  0.28731334    -0.73300
O2466       O  0.64512180  0.99864348  0.28818735    -0.85400
Zr2467     Zr  0.76095232  0.92271086  0.30531085     2.26400
Zr2468     Zr  0.77286043  0.51774698  0.26800446     2.06300
Zr2469     Zr  0.65038599  0.93359787  0.27205293     2.10000
Zr2470     Zr  0.73372051  0.94497690  0.19535227     1.78800
O2471       O  0.60402728  0.92091023  0.32219046    -0.94300
O2472       O  0.78569181  0.95961990  0.15202937    -0.42100
O2473       O  0.71934493  0.91301596  0.25178533    -0.78700
O2474       O  0.77817771  0.95249612  0.24770524    -0.97400
O2475       O  0.75606636  0.98699261  0.32236036    -0.90700
O2476       O  0.69190200  0.94194367  0.32586512    -0.93500
C2477       C  0.67884268  0.50678545  0.13376196     1.00200
C2478       C  0.56989268  0.00007784  0.23641406     1.13200
C2479       C  0.71765474  0.60453585  0.24142686     1.03900
O2480       O  0.81858114  0.53002394  0.21725253    -0.95700
O2481       O  0.84081913  0.48417086  0.28517005    -0.91400
O2482       O  0.83376743  0.92657177  0.30436198    -0.84600
C2483       C  0.85567190  0.95138663  0.29605953     1.10600
O2484       O  0.62466643  0.55438239  0.35014993    -0.97700
Zr2485     Zr  0.68671264  0.00699436  0.34165222     1.88900
O2486       O  0.75563861  0.92487629  0.37587642    -0.74300
O2487       O  0.80274208  0.55404263  0.31523915    -0.53600
O2488       O  0.70275414  0.56078621  0.37332440    -0.98200
O2489       O  0.63220334  0.99271247  0.38266351    -0.55500
O2490       O  0.72347146  0.98177628  0.39721597    -0.74800
C2491       C  0.74352569  0.94886062  0.40286824     0.97500
O2492       O  0.80905970  0.86936979  0.32792113    -0.63600
O2493       O  0.62206205  0.89334662  0.22757186    -0.58400
O2494       O  0.74591831  0.86060189  0.28905826    -0.95100
O2495       O  0.67693615  0.86725249  0.28755339    -0.93600
O2496       O  0.70274302  0.89666965  0.16429003    -0.93900
O2497       O  0.78382276  0.88931333  0.17953030    -0.92700
C2498       C  0.71290216  0.84702334  0.28986703     1.16400
H2499       H  0.64664518  0.96266404  0.19607221     0.32300
H2500       H  0.80548789  0.94218395  0.23917203     0.43200
H2501       H  0.68533409  0.92710489  0.34693237     0.36700
H2502       H  0.69853207  0.56407282  0.29550374     0.33200
H2503       H  0.77965826  0.94842820  0.12746665     0.25000
H2504       H  0.82073757  0.56785116  0.30056429     0.30900
H2505       H  0.69506478  0.55823021  0.40022424     0.36800
H2506       H  0.70249239  0.87703991  0.18367742     0.31300
H2507       H  0.60262827  0.88178596  0.24292920     0.30100
H2508       H  0.57943543  0.91590047  0.30887739     0.31800
H2509       H  0.64092458  0.99740401  0.40877118     0.30800
H2510       H  0.79099716  0.87708525  0.20417971     0.34800
H2511       H  0.79331504  0.85441457  0.34382959     0.27500
H2512       H  0.62512331  0.60108078  0.26648623     0.31800
H2513       H  0.62988722  0.57557437  0.33433599     0.34600
H2514       H  0.60461018  0.91069152  0.21041714     0.27200
H2515       H  0.81779207  0.85357240  0.30525121     0.40100
H2516       H  0.82764631  0.50524665  0.20488686     0.30100
H2517       H  0.77616223  0.49250067  0.14809067     0.37800
H2518       H  0.63359538  0.96518173  0.38116568     0.29600
H2519       H  0.77999921  0.57365079  0.32422108     0.29700
H2520       H  0.59164850  0.57648364  0.26467534     0.29900
C2521       C  0.95995156  0.94037694  0.84740128     0.85400
C2522       C  0.97562400  0.96501469  0.81792926    -0.54800
C2523       C  0.96108960  0.96038973  0.78214612     0.08300
C2524       C  0.93405384  0.92893446  0.77964470     0.19300
C2525       C  0.91298274  0.94939245  0.84297530    -0.55600
C2526       C  0.89932298  0.94300335  0.80790794     0.08400
C2527       C  0.97297764  0.90030342  0.83334213    -0.55100
C2528       C  0.95961114  0.89352699  0.79827681     0.09000
H2529       H  0.99427799  0.98553476  0.82559987     0.13500
H2530       H  0.92253230  0.92302066  0.75131210    -0.00700
H2531       H  0.89221612  0.96113719  0.86555686     0.13800
H2532       H  0.98905188  0.87811599  0.85111218     0.13600
C2533       C  0.71787243  0.76019494  0.84901118     0.85400
C2534       C  0.70275857  0.73491228  0.81967528    -0.54800
C2535       C  0.71709108  0.73939355  0.78365794     0.08300
C2536       C  0.74341034  0.77144388  0.78086880     0.19300
C2537       C  0.76480380  0.75197206  0.84377643    -0.55600
C2538       C  0.77842664  0.75821659  0.80858818     0.08400
C2539       C  0.70393989  0.80003272  0.83537674    -0.55100
C2540       C  0.71699825  0.80680419  0.80008942     0.09000
H2541       H  0.68448569  0.71417423  0.82756802     0.13500
H2542       H  0.75473014  0.77716209  0.75231706    -0.00700
H2543       H  0.78564978  0.74052638  0.86590428     0.13800
H2544       H  0.68752357  0.82214369  0.85359652     0.13600
C2545       C  0.93402370  0.80564095  0.99460453     0.85400
C2546       C  0.89165202  0.79931519  0.00738665    -0.54800
C2547       C  0.88470656  0.76395098  0.99936729     0.08300
C2548       C  0.92018158  0.73885887  0.97807167     0.19300
C2549       C  0.96254089  0.77404903  0.51177877    -0.55600
C2550       C  0.95486601  0.73882793  0.50446167     0.08400
C2551       C  0.93704256  0.79642984  0.95237552    -0.55100
C2552       C  0.93002072  0.76178878  0.94299893     0.09000
H2553       H  0.86832696  0.81998510  0.52145677     0.13500
H2554       H  0.91323804  0.71102106  0.97011047    -0.00700
H2555       H  0.98598306  0.77969771  0.53090396     0.13800
H2556       H  0.94547905  0.81567051  0.93139593     0.13600
C2557       C  0.74384128  0.89509089  0.99547537     0.85400
C2558       C  0.78619853  0.90148478  0.00773419    -0.54800
C2559       C  0.79329244  0.93665746  0.99949794     0.08300
C2560       C  0.75793402  0.96149189  0.97872067     0.19300
C2561       C  0.71546130  0.92580723  0.51453478    -0.55600
C2562       C  0.72326869  0.96089343  0.50700637     0.08400
C2563       C  0.74119270  0.90345711  0.95326308    -0.55100
C2564       C  0.74844530  0.93781217  0.94370247     0.09000
H2565       H  0.80941287  0.87962708  0.52172649     0.13500
H2566       H  0.76486689  0.98924351  0.97067329    -0.00700
H2567       H  0.69247686  0.92051790  0.53460358     0.13800
H2568       H  0.73298832  0.88379655  0.93242263     0.13600
C2569       C  0.96752585  0.50768361  0.68536705     0.85400
C2570       C  0.95182990  0.54726767  0.69943731    -0.54800
C2571       C  0.96465510  0.55486549  0.73435931     0.08300
C2572       C  0.99105964  0.52010490  0.75359620     0.19300
C2573       C  0.51493058  0.00193907  0.68980289    -0.55600
C2574       C  0.52655973  0.50755377  0.72614246     0.08400
C2575       C  0.95345403  0.98089089  0.71454213    -0.55100
C2576       C  0.96663913  0.98640904  0.75055985     0.09000
H2577       H  0.93570833  0.56904328  0.68120139     0.13500
H2578       H  0.50142234  0.52603042  0.78262172    -0.00700
H2579       H  0.53660981  0.99356438  0.66746125     0.13800
H2580       H  0.93671225  0.95903958  0.70644397     0.13600
C2581       C  0.49442216  0.63831901  0.54165909     0.85400
C2582       C  0.96580589  0.67029330  0.52026134    -0.54800
C2583       C  0.97492968  0.70532701  0.52608665     0.08300
C2584       C  0.51140604  0.70466820  0.55499557     0.19300
C2585       C  0.53708588  0.64251974  0.52810784    -0.55600
C2586       C  0.54556589  0.67767251  0.53382548     0.08400
C2587       C  0.99162289  0.64975579  0.58231960    -0.55100
C2588       C  0.50069347  0.68366343  0.59134605     0.09000
H2589       H  0.94224907  0.66448758  0.00331766     0.13500
H2590       H  0.52014309  0.73208913  0.56172016    -0.00700
H2591       H  0.55838228  0.61993522  0.51485078     0.13800
H2592       H  0.98237207  0.63180108  0.60415011     0.13600
C2593       C  0.68235875  0.56204497  0.54332227     0.85400
C2594       C  0.71217045  0.52980094  0.52443377    -0.54800
C2595       C  0.70378184  0.99482296  0.52948812     0.08300
C2596       C  0.66632511  0.99599186  0.55637073     0.19300
C2597       C  0.64040749  0.55712484  0.52875527    -0.55600
C2598       C  0.63170434  0.52206135  0.53440012     0.08400
C2599       C  0.68256535  0.55262934  0.58539595    -0.55100
C2600       C  0.67363349  0.51850754  0.59372117     0.09000
H2601       H  0.73812973  0.53574312  0.00671192     0.13500
H2602       H  0.65744086  0.96862931  0.56284167    -0.00700
H2603       H  0.61968310  0.57927594  0.51487883     0.13800
H2604       H  0.69093602  0.57127915  0.60715567     0.13600
C2605       C  0.71018527  0.69171199  0.68688290     0.85400
C2606       C  0.72762222  0.65257057  0.70025224    -0.54800
C2607       C  0.71578323  0.64476918  0.73554137     0.08300
C2608       C  0.68822630  0.67892697  0.75568256     0.19300
C2609       C  0.66370930  0.69637575  0.69325493    -0.55600
C2610       C  0.65196653  0.69005882  0.72907640     0.08400
C2611       C  0.72397685  0.71842792  0.71564077    -0.55100
C2612       C  0.71172715  0.71286102  0.75205598     0.09000
H2613       H  0.74394932  0.63103009  0.68132325     0.13500
H2614       H  0.67870778  0.67234681  0.78461417    -0.00700
H2615       H  0.64147701  0.70508464  0.67170217     0.13800
H2616       H  0.73979987  0.74078432  0.70717108     0.13600
Zr2617     Zr  0.92162413  0.93777197  0.97360192     2.17500
O2618       O  0.87400660  0.91361233  0.93140311    -0.52400
O2619       O  0.92244566  0.87106645  0.98214867    -0.75600
O2620       O  0.94671632  0.93086624  0.91025880    -0.82400
O2621       O  0.84456412  0.94648642  0.54383638    -0.84200
O2622       O  0.00055336  0.96017397  0.89889842    -0.79800
O2623       O  0.85069055  0.96202386  0.98301972    -0.91400
O2624       O  0.97017724  0.84781334  0.52262231    -0.77400
O2625       O  0.99334175  0.91904616  0.97951026    -0.86900
O2626       O  0.92936961  0.91857710  0.53677647    -0.86600
O2627       O  0.95128594  0.99114165  0.95471117    -0.73300
O2628       O  0.89173896  0.99250223  0.50866877    -0.85400
Zr2629     Zr  0.50154993  0.50711921  0.56271389     2.26400
Zr2630     Zr  0.52432108  0.97333110  0.96276983     2.06300
Zr2631     Zr  0.90117043  0.97251070  0.57306019     2.10000
Zr2632     Zr  0.00103005  0.89987275  0.54218006     1.78800
O2633       O  0.84775375  0.52801702  0.59211419    -0.94300
O2634       O  0.55007476  0.85464757  0.50700126    -0.42100
O2635       O  0.97307822  0.95329533  0.58006946    -0.78700
O2636       O  0.53408116  0.95334963  0.52652114    -0.97400
O2637       O  0.99088654  0.52122893  0.49980162    -0.90700
O2638       O  0.93025663  0.52907120  0.55636641    -0.93500
C2639       C  0.94238697  0.84435980  0.00172459     1.00200
C2640       C  0.83161490  0.94912617  0.50948385     1.13200
C2641       C  0.97110043  0.94383040  0.88805945     1.03900
O2642       O  0.57840338  0.92403837  0.93929433    -0.95700
O2643       O  0.58428218  0.99642776  0.99375545    -0.91400
O2644       O  0.56485833  0.52475060  0.55110206    -0.84600
C2645       C  0.59115461  0.51309616  0.52565566     1.10600
O2646       O  0.86157170  0.55858394  0.95688438    -0.97700
Zr2647     Zr  0.92402004  0.54561894  0.49130433     1.88900
O2648       O  0.50096510  0.57395168  0.55873189    -0.74300
O2649       O  0.54195639  0.52063367  0.91974991    -0.53600
O2650       O  0.93458480  0.57142059  0.92962258    -0.98200
O2651       O  0.87866231  0.59911534  0.51980932    -0.55500
O2652       O  0.96046558  0.59525948  0.50807535    -0.74800
C2653       C  0.98482013  0.60018946  0.53474762     0.97500
O2654       O  0.55592673  0.98012474  0.60498860    -0.63600
O2655       O  0.88102010  0.92867555  0.61897112    -0.58400
O2656       O  0.97365495  0.52447049  0.62252121    -0.95100
O2657       O  0.93277286  0.98062718  0.63448461    -0.93600
O2658       O  0.99005734  0.86463453  0.59878664    -0.93900
O2659       O  0.56230094  0.88823673  0.58331389    -0.92700
C2660       C  0.95684236  0.50407597  0.64481591     1.16400
H2661       H  0.91429834  0.89929921  0.54428461     0.32300
H2662       H  0.56281384  0.94697619  0.53177467     0.43200
H2663       H  0.92079769  0.55024513  0.57291963     0.36700
H2664       H  0.94461457  0.49943900  0.92937328     0.33200
H2665       H  0.55101973  0.83071418  0.52072918     0.25000
H2666       H  0.55136677  0.50656185  0.89620573     0.30900
H2667       H  0.96364034  0.57414083  0.92874681     0.36800
H2668       H  0.96260046  0.87638698  0.60807301     0.31300
H2669       H  0.87158078  0.94404679  0.64171968     0.30100
H2670       H  0.82940974  0.53243503  0.57003383     0.31800
H2671       H  0.88044538  0.62050884  0.50287580     0.30800
H2672       H  0.58498916  0.89549542  0.56856262     0.34800
H2673       H  0.54579868  0.95796581  0.61510705     0.27500
H2674       H  0.89027270  0.89446672  0.91460195     0.31800
H2675       H  0.86094147  0.53563412  0.94156232     0.34600
H2676       H  0.85614185  0.92074056  0.60902447     0.27200
H2677       H  0.58042245  0.96876209  0.59020140     0.40100
H2678       H  0.58254123  0.93067159  0.91254072     0.30100
H2679       H  0.53433247  0.85104740  0.98274482     0.37800
H2680       H  0.89134833  0.60549838  0.54370434     0.29600
H2681       H  0.51551619  0.53618454  0.91291843     0.29700
H2682       H  0.86264087  0.93452180  0.91453537     0.29900
Zr2683     Zr  0.51381067  0.67059320  0.72798467     2.17500
O2684       O  0.55823120  0.61786023  0.69680235    -0.52400
O2685       O  0.50811025  0.67472954  0.65806717    -0.75600
O2686       O  0.99739141  0.60774970  0.73640261    -0.82400
O2687       O  0.59391925  0.73237356  0.75126920    -0.84200
O2688       O  0.92954933  0.61570651  0.75096134    -0.79800
O2689       O  0.58652987  0.67339213  0.73295290    -0.91400
O2690       O  0.97312186  0.73067679  0.63692979    -0.77400
O2691       O  0.94414960  0.69029333  0.71143997    -0.86900
O2692       O  0.50875434  0.73526894  0.71182329    -0.86600
O2693       O  0.97599282  0.66199119  0.78459392    -0.73300
O2694       O  0.53411626  0.70215447  0.78341592    -0.85400
Zr2695     Zr  0.91739685  0.77784793  0.80663173     2.26400
Zr2696     Zr  0.90567646  0.68204913  0.76791187     2.06300
Zr2697     Zr  0.52619860  0.76743671  0.76759763     2.10000
Zr2698     Zr  0.93831595  0.75509096  0.69526783     1.78800
O2699       O  0.57101061  0.78232501  0.81759883    -0.94300
O2700       O  0.88794123  0.73480582  0.65399052    -0.42100
O2701       O  0.95591207  0.78734321  0.75055284    -0.78700
O2702       O  0.89763306  0.74698200  0.75033629    -0.97400
O2703       O  0.92430664  0.71355153  0.82347549    -0.90700
O2704       O  0.98749221  0.75923964  0.82227947    -0.93500
C2705       C  0.49503262  0.69789970  0.63138273     1.00200
C2706       C  0.60823496  0.69874880  0.73973019     1.13200
C2707       C  0.96417871  0.59503626  0.74261493     1.03900
O2708       O  0.85754155  0.66644618  0.72133769    -0.95700
O2709       O  0.83745606  0.71616335  0.78649977    -0.91400
O2710       O  0.84433223  0.77472346  0.80683706    -0.84600
C2711       C  0.82274319  0.74935322  0.79933959     1.10600
O2712       O  0.55236089  0.64327741  0.84601238    -0.97700
Zr2713     Zr  0.99459909  0.69462606  0.83872628     1.88900
O2714       O  0.92347806  0.77278352  0.87654086    -0.74300
O2715       O  0.87926527  0.64373383  0.81541657    -0.53600
O2716       O  0.97585713  0.63871812  0.86729297    -0.98200
O2717       O  0.54528613  0.71369274  0.88048993    -0.55500
O2718       O  0.95676943  0.71631001  0.89597054    -0.74800
C2719       C  0.93604180  0.74888951  0.90273572     0.97500
O2720       O  0.88526293  0.83419532  0.84101277    -0.63600
O2721       O  0.55517682  0.80686646  0.72283346    -0.58400
O2722       O  0.92956616  0.83991721  0.78736763    -0.95100
O2723       O  0.99856315  0.83366027  0.78289442    -0.93600
O2724       O  0.95985852  0.80864124  0.66478844    -0.93900
O2725       O  0.88047737  0.80538329  0.68478616    -0.92700
C2726       C  0.96262406  0.85363206  0.78689959     1.16400
H2727       H  0.52702108  0.73847768  0.69117731     0.32300
H2728       H  0.87002101  0.75668417  0.74287455     0.43200
H2729       H  0.99484705  0.77445981  0.84284117     0.36700
H2730       H  0.98077148  0.63672360  0.79410430     0.33200
H2731       H  0.89203412  0.74629376  0.62918117     0.25000
H2732       H  0.90381224  0.63004078  0.82809883     0.30900
H2733       H  0.97976760  0.64164760  0.89487466     0.36800
H2734       H  0.94841525  0.80896260  0.63894206     0.31300
H2735       H  0.57374909  0.81939306  0.73817325     0.30100
H2736       H  0.59312580  0.79215935  0.80423228     0.31800
H2737       H  0.53224164  0.73791627  0.89204796     0.30800
H2738       H  0.87520906  0.81815992  0.70971412     0.34800
H2739       H  0.86733900  0.82531957  0.86017374     0.27500
H2740       H  0.57681884  0.62906268  0.68008704     0.31800
H2741       H  0.55653025  0.64023868  0.87365301     0.34600
H2742       H  0.57351147  0.78928318  0.70604401     0.27200
H2743       H  0.90707250  0.84248009  0.85615683     0.40100
H2744       H  0.84939937  0.68979712  0.70670822     0.30100
H2745       H  0.89749275  0.70755821  0.64976662     0.37800
H2746       H  0.56635912  0.72027849  0.86309914     0.29600
H2747       H  0.86591435  0.66178146  0.83485710     0.29700
H2748       H  0.54086429  0.60666353  0.67889140     0.29900
Zr2749     Zr  0.75629383  0.76285364  0.97474063     2.17500
O2750       O  0.80598961  0.78396399  0.93219971    -0.52400
O2751       O  0.75624185  0.82944324  0.98361768    -0.75600
O2752       O  0.73090931  0.77031104  0.91190682    -0.82400
O2753       O  0.83271437  0.75273601  0.54376345    -0.84200
O2754       O  0.67809987  0.73970036  0.90090375    -0.79800
O2755       O  0.82717853  0.73871514  0.98346919    -0.91400
O2756       O  0.70858824  0.85171879  0.52673169    -0.77400
O2757       O  0.68435705  0.78201079  0.98093235    -0.86900
O2758       O  0.74852048  0.78078187  0.53898183    -0.86600
O2759       O  0.72715505  0.70910151  0.95558865    -0.73300
O2760       O  0.78523544  0.70639775  0.50865931    -0.85400
Zr2761     Zr  0.67487472  0.69350940  0.56350078     2.26400
Zr2762     Zr  0.65428074  0.72782784  0.96516798     2.06700
Zr2763     Zr  0.77626436  0.72610959  0.57346494     2.10000
Zr2764     Zr  0.67683020  0.79991545  0.54603989     1.78800
O2765       O  0.83172647  0.67757878  0.59430044    -0.94300
O2766       O  0.62923810  0.84706005  0.51256665    -0.42100
O2767       O  0.70446795  0.74601178  0.58210882    -0.78700
O2768       O  0.64404668  0.74796689  0.52948417    -0.97400
O2769       O  0.68573254  0.67913764  0.50147553    -0.90700
O2770       O  0.74638832  0.67242028  0.55749517    -0.93500
C2771       C  0.73525423  0.85659354  0.00257708     1.00200
C2772       C  0.84591813  0.75026925  0.50921392     1.13200
C2773       C  0.70699377  0.75668587  0.88985663     1.03900
O2774       O  0.60106315  0.77809654  0.94350177    -0.95700
O2775       O  0.59344612  0.70581865  0.99460524    -0.91400
O2776       O  0.61139431  0.67641413  0.55188002    -0.84600
C2777       C  0.58600887  0.68668816  0.52583831     1.10600
O2778       O  0.81817929  0.64295915  0.95825197    -0.97700
Zr2779     Zr  0.75358384  0.65578528  0.99274926     1.88900
O2780       O  0.67546697  0.62676247  0.55980611    -0.74300
O2781       O  0.63076701  0.68321368  0.92209250    -0.53600
O2782       O  0.74547236  0.62878606  0.93033619    -0.98200
O2783       O  0.79814876  0.60235529  0.52172564    -0.55500
O2784       O  0.71681077  0.60473664  0.51028214    -0.74800
C2785       C  0.69200950  0.60049077  0.53710664     0.97500
O2786       O  0.62195001  0.72038011  0.60889885    -0.63600
O2787       O  0.79822825  0.76614978  0.62232194    -0.58400
O2788       O  0.70246747  0.67603717  0.62371974    -0.95100
O2789       O  0.74453472  0.71756428  0.63522081    -0.93600
O2790       O  0.68761806  0.82904989  0.60670384    -0.93900
O2791       O  0.61755496  0.81660740  0.58765030    -0.92700
C2792       C  0.72016423  0.69570706  0.64609330     1.16400
H2793       H  0.76384437  0.79995602  0.54632602     0.32300
H2794       H  0.61532180  0.75462791  0.53524528     0.43200
H2795       H  0.75584239  0.65158506  0.57399989     0.36700
H2796       H  0.73511341  0.70122826  0.93005690     0.33200
H2797       H  0.63370841  0.87179501  0.52217370     0.25000
H2798       H  0.65516945  0.67230538  0.90690923     0.30900
H2799       H  0.74670316  0.60162001  0.93490041     0.36800
H2800       H  0.71761418  0.82450936  0.60973886     0.31300
H2801       H  0.80914023  0.74886124  0.64287852     0.30100
H2802       H  0.82199194  0.66882819  0.61867350     0.31800
H2803       H  0.79750589  0.58052213  0.50475956     0.30800
H2804       H  0.59549655  0.80545784  0.57596581     0.34800
H2805       H  0.63169146  0.74285396  0.61893961     0.27500
H2806       H  0.79071996  0.80300891  0.91518525     0.31800
H2807       H  0.81823211  0.66528511  0.94216879     0.34600
H2808       H  0.82229504  0.77522984  0.61178696     0.27200
H2809       H  0.59726891  0.73104788  0.59453010     0.40100
H2810       H  0.57731030  0.77690337  0.96021279     0.30100
H2811       H  0.63772059  0.84791668  0.98661744     0.37800
H2812       H  0.78478685  0.59609551  0.54539240     0.29600
H2813       H  0.62559101  0.66226328  0.93828153     0.29700
H2814       H  0.81697121  0.76232540  0.91558761     0.29900
Zr2815     Zr  0.66268597  0.53019263  0.73277504     2.17500
O2816       O  0.61178428  0.58575656  0.74879386    -0.52400
O2817       O  0.66556058  0.52926821  0.66161905    -0.75600
O2818       O  0.68581162  0.59073579  0.73007161    -0.82400
O2819       O  0.58460278  0.96921364  0.75393466    -0.84200
O2820       O  0.74834008  0.58530254  0.75762474    -0.79800
O2821       O  0.59257233  0.52226493  0.72313896    -0.91400
O2822       O  0.70151156  0.97235001  0.63981467    -0.77400
O2823       O  0.73175299  0.51017633  0.71373766    -0.86900
O2824       O  0.66879561  0.96495751  0.71477368    -0.86600
O2825       O  0.70285065  0.53811601  0.78787330    -0.73300
O2826       O  0.64541876  0.99763725  0.78732195    -0.85400
Zr2827     Zr  0.76113944  0.92262729  0.80637337     2.26400
Zr2828     Zr  0.77254284  0.51804066  0.76820125     2.06300
Zr2829     Zr  0.65190281  0.93286239  0.77022833     2.10000
Zr2830     Zr  0.73792424  0.94528960  0.69608788     1.78800
O2831       O  0.60500641  0.91947647  0.81949816    -0.94300
O2832       O  0.78804634  0.96365761  0.65266996    -0.42100
O2833       O  0.72152481  0.91285954  0.75159490    -0.78700
O2834       O  0.77998655  0.95338806  0.74987748    -0.97400
O2835       O  0.75529184  0.98683150  0.82412693    -0.90700
O2836       O  0.69153664  0.94146384  0.82518335    -0.93500
C2837       C  0.67853011  0.50548697  0.63440107     1.00200
C2838       C  0.57140308  0.99917202  0.73486839     1.13200
C2839       C  0.71616641  0.60462860  0.74283847     1.03900
O2840       O  0.81388343  0.53269963  0.71502862    -0.95700
O2841       O  0.84059674  0.48457377  0.78644931    -0.91400
O2842       O  0.83380625  0.92630915  0.80573099    -0.84600
C2843       C  0.85526258  0.95185224  0.79903922     1.10600
O2844       O  0.62983797  0.55724822  0.85746049    -0.97700
Zr2845     Zr  0.68557637  0.00637851  0.84183572     1.88900
O2846       O  0.75459563  0.92554437  0.87674121    -0.74300
O2847       O  0.80734891  0.55334154  0.81256730    -0.53600
O2848       O  0.70887290  0.55985798  0.87240645    -0.98200
O2849       O  0.63705888  0.99004493  0.88826673    -0.55500
O2850       O  0.72366182  0.98308509  0.89732681    -0.74800
C2851       C  0.74298338  0.94999451  0.90341863     0.97500
O2852       O  0.80706953  0.86928570  0.83202652    -0.63600
O2853       O  0.62512718  0.89310229  0.72414330    -0.58400
O2854       O  0.74645908  0.86056346  0.78888022    -0.95100
O2855       O  0.67755463  0.86688590  0.78645614    -0.93600
O2856       O  0.71530091  0.89094669  0.66769738    -0.93900
O2857       O  0.79388862  0.89392308  0.68150018    -0.92700
C2858       C  0.71348666  0.84685102  0.78927503     1.16400
H2859       H  0.65050276  0.96173679  0.69437074     0.32300
H2860       H  0.80757669  0.94359947  0.74179525     0.43200
H2861       H  0.68439802  0.92655709  0.84596951     0.36700
H2862       H  0.69754373  0.56398562  0.79618277     0.33200
H2863       H  0.78376304  0.95112114  0.62834340     0.25000
H2864       H  0.81921987  0.57128455  0.79674269     0.30900
H2865       H  0.70104786  0.55881160  0.89946285     0.36800
H2866       H  0.71605112  0.89525528  0.64003892     0.31300
H2867       H  0.60293766  0.88371669  0.73785562     0.30100
H2868       H  0.60156773  0.94172932  0.83653138     0.31800
H2869       H  0.64007474  0.00575878  0.91083941     0.30800
H2870       H  0.80012796  0.88093478  0.70592656     0.34800
H2871       H  0.79005691  0.85510312  0.84745869     0.27500
H2872       H  0.62447643  0.60035633  0.76772020     0.31800
H2873       H  0.63113506  0.57615907  0.83754184     0.34600
H2874       H  0.61092966  0.91055056  0.70507717     0.27200
H2875       H  0.81650571  0.85281332  0.80999713     0.40100
H2876       H  0.84007489  0.53611181  0.72644073     0.30100
H2877       H  0.77623569  0.49382220  0.65154160     0.37800
H2878       H  0.64820538  0.96411201  0.89628513     0.29600
H2879       H  0.78525131  0.56913501  0.82731867     0.29700
H2880       H  0.59031172  0.57669054  0.76385557     0.29900
loop_ 
_geom_bond_atom_site_label_1 
_geom_bond_atom_site_label_2 
_geom_bond_distance 
_geom_bond_site_symmetry_2 
_ccdc_geom_bond_type 
C1            C2   1.522       .  S
C1            C7   1.516       .  S
C1            C5   1.552       .  S
C1          C121   1.500       .  S
C2            H9   1.082       .  S
C2            C3   1.376       .  D
C3            C4   1.574       .  S
C3           C56   1.499       .  S
C4            C8   1.563       .  S
C4            C6   1.539       .  S
C4           H10   1.106       .  S
C5           H11   1.085       .  S
C5            C6   1.355       .  D
C6          C323   1.488       .  S
C7           H12   1.088       .  S
C7            C8   1.354       .  D
C8          C206   1.484       .  S
C13          C14   1.523       .  S
C13          C19   1.517       .  S
C13          C17   1.550       .  S
C13         C253   1.497       .  S
C14          H21   1.082       .  S
C14          C15   1.375       .  D
C15          C16   1.576       .  S
C15          C92   1.501       .  S
C16          C20   1.568       .  S
C16          C18   1.541       .  S
C16          H22   1.106       .  S
C17          H23   1.084       .  S
C17          C18   1.353       .  D
C18         C191   1.491       .  S
C19          H24   1.088       .  S
C19          C20   1.354       .  D
C20         C338   1.489       .  S
C25          C26   1.532       .  S
C25          C31   1.522       .  S
C25         C389   1.538       .  S
C25         C119   1.492       .  S
C26         H393   1.086       .  S
C26          C27   1.366       .  D
C27          C28   1.542       .  S
C27         C612   1.467       .  S
C28          C32   1.556       .  S
C28         C390   1.550       .  S
C28          H34   1.106       .  S
C29         C385   1.537   1_554  S
C29          H35   1.081       .  S
C29          C30   1.367       .  D
C30         C388   1.549   1_554  S
C30          C63   1.494       .  S
C31          H36   1.088       .  S
C31          C32   1.352       .  D
C32         C199   1.488       .  S
H33         C386   1.086       .  S
C37          C38   1.535       .  S
C37          C43   1.525       .  S
C37         C401   1.535       .  S
C37         C251   1.494       .  S
C38         H405   1.086       .  S
C38          C39   1.367       .  D
C39          C40   1.543       .  S
C39         C480   1.472       .  S
C40          C44   1.564       .  S
C40         C402   1.557       .  S
C40          H46   1.107       .  S
C41         C397   1.536   1_554  S
C41          H47   1.081       .  S
C41          C42   1.366       .  D
C42         C400   1.555   1_554  S
C42          C75   1.499       .  S
C43          H48   1.088       .  S
C43          C44   1.352       .  D
C44         C331   1.497       .  S
H45         C398   1.086       .  S
C49          C50   1.513       .  S
C49         C775   1.522   1_545  S
C49        C2213   1.541       .  S
C49         C140   1.483       .  S
C50          H57   1.089       .  S
C50          C51   1.348       .  D
C51          C52   1.566       .  S
C51         C187   1.477       .  S
C52         C776   1.570   1_545  S
C52        C1494   1.532       .  S
C52        H1498   1.106       .  S
C53        C2209   1.541   1_455  S
C53          H59   1.072       .  S
C53         C774   1.351       .  D
C54        C1492   1.530   1_455  S
C54         C773   1.352       .  D
C54        C1038   1.478       .  S
C55         C769   1.525       .  S
C55          H60   1.082       .  S
C55          C56   1.373       .  D
C56         C772   1.571       .  S
H58        C1492   1.106   1_455  S
C61          C65   1.530   1_655  S
C61        C1502   1.534       .  S
C61        C1507   1.525       .  S
C61        C1573   1.496       .  S
C62        C1501   1.538       .  S
C62         H429   1.081       .  S
C62          C63   1.370       .  D
C63        C1504   1.550       .  S
C64          C68   1.568       .  S
C64          C66   1.548       .  S
C64        C1503   1.552   1_455  S
C64          H70   1.106       .  S
C65          H71   1.083       .  S
C65          C66   1.364       .  D
C66         C257   1.470       .  S
C67        C1501   1.522       .  S
C67          H72   1.088       .  S
C67        C1508   1.353       .  D
C68        C1507   1.353   1_455  D
C68         C185   1.504   1_455  S
H69         C422   1.081       .  S
C73          C74   1.535       .  S
C73          C79   1.525       .  S
C73          C77   1.532       .  S
C73         C265   1.498       .  S
C74         H441   1.082       .  S
C74         C795   1.367   1_545  D
C75          C76   1.555       .  S
C75         C794   1.369       .  D
C76         C800   1.577       .  S
C76         C798   1.551       .  S
C76          H82   1.106       .  S
C77          H83   1.083       .  S
C77          C78   1.365       .  D
C78         C796   1.553   1_545  S
C78         C125   1.477       .  S
C79          H84   1.088       .  S
C79          C80   1.353       .  D
C80         C796   1.579   1_545  S
C80         C317   1.515       .  S
H81         C434   1.082       .  S
C85          C86   1.512       .  S
C85          C91   1.523       .  S
C85          C89   1.542       .  S
C85         C272   1.489       .  S
C86          H93   1.089       .  S
C86          C87   1.350       .  D
C87          C88   1.567       .  S
C87         C319   1.474       .  S
C88          C92   1.575       .  S
C88          C90   1.535       .  S
C88          H94   1.107       .  S
C89          H95   1.075       .  S
C89          C90   1.353       .  D
C90         C186   1.483       .  S
C91          H96   1.082       .  S
C91          C92   1.372       .  D
Zr97         O98   2.449       .  S
Zr97         O99   2.433       .  S
Zr97        O100   2.373       .  S
Zr97        O103   2.390       .  S
Zr97        O105   2.383       .  S
Zr97        O107   2.417       .  S
Zr97        O466   2.375       .  S
Zr97        O468   2.400       .  S
O98         H154   0.990       .  S
O98         H162   0.989       .  S
O99         C119   1.282       .  A
O100        C121   1.273       .  A
O101       Zr111   2.486       .  S
O101        C120   1.290       .  A
O102      Zr1550   2.479       .  S
O102        C121   1.292       .  A
O103        C480   1.268       .  A
O104       Zr112   2.401       .  S
O104        C479   1.276       .  A
O105      Zr1550   2.418       .  S
O105       Zr472   2.384       .  S
O106       Zr111   2.382       .  S
O106       Zr112   2.379       .  S
O106       Zr457   2.375   1_554  S
O106        H141   0.965       .  S
O107      Zr1550   2.423       .  S
O107      Zr1207   2.376       .  S
O107        H864   0.963       .  S
O108       Zr111   2.387       .  S
O108       Zr457   2.398   1_554  S
O108       Zr847   2.389   1_554  S
Zr109       O854   2.438   1_545  S
Zr109       O128   2.407       .  S
Zr109       O124   2.342       .  S
Zr109      O1576   2.366   1_455  S
Zr109      O2275   2.378   1_445  S
Zr109       O836   2.385   1_545  S
Zr109      O1557   2.356   1_454  S
Zr109      O1558   2.378   1_455  S
Zr110       O122   2.435       .  S
Zr110       O849   2.440       .  S
Zr110       O123   2.540       .  S
Zr110      O1542   2.474   1_455  S
Zr110      O1545   2.418   1_455  S
Zr110      O1547   2.423   1_455  S
Zr110       O476   2.386       .  S
Zr110      O2637   2.272   1_455  S
Zr111       O135   2.437       .  S
Zr111       O833   2.435       .  S
Zr111       O137   2.459       .  S
Zr111       O115   2.387       .  S
Zr111       O838   2.396       .  S
Zr112       O138   2.435       .  S
Zr112      O1579   2.436       .  S
Zr112      O1554   2.433       .  S
Zr112       O115   2.386       .  S
Zr112       O465   2.382   1_554  S
Zr112      O1556   2.398       .  S
O113       Zr831   2.436   1_545  S
O113        H150   0.990       .  S
O114      Zr1552   2.433       .  S
O114        H145   0.990       .  S
O114        H519   0.990   1_554  S
O115      Zr2269   2.378       .  S
O116       Zr829   2.390       .  S
O116       Zr470   2.383   1_554  S
O116      Zr1552   2.401       .  S
O116        H142   0.965       .  S
O117       Zr127   2.363       .  S
O117      Zr1549   2.355   1_556  S
O117      Zr2630   2.363   1_545  S
O118       Zr127   2.377   1_554  S
O118      Zr1549   2.374       .  S
O118       Zr831   2.394   1_545  S
O118        H143   0.965       .  S
C119        O464   1.275       .  A
C120        C399   1.472   1_554  S
C120        O463   1.269   1_554  A
O122        H158   0.990       .  S
O123       C1205   1.306       .  A
O124        C125   1.266       .  A
C125       O1203   1.308   1_544  A
O126       Zr487   2.435       .  S
O126        H155   0.990       .  S
Zr127       O131   2.437   1_556  S
Zr127       O486   2.434       .  S
Zr127       O490   2.437       .  S
Zr127       O132   2.406   1_556  S
Zr127      O1187   2.379   1_545  S
Zr127       O828   2.395   1_546  S
O128       C1573   1.282   1_455  A
O129       Zr830   2.436   1_545  S
O129        H146   0.990       .  S
O129        H161   0.990       .  S
O130       Zr487   2.439       .  S
O130        H147   0.990       .  S
O131        H151   0.990       .  S
O131        H160   0.990       .  S
O132        C133   1.278       .  A
C133       C1501   1.498       .  S
C133       O1568   1.284       .  A
O134       Zr829   2.441       .  S
O134        H153   0.990       .  S
O134        H157   0.989       .  S
O135        H149   0.989       .  S
O135        H156   0.989       .  S
O136      Zr1549   2.363       .  S
O136        C140   1.273       .  A
O137        C860   1.286       .  A
O138        H148   0.990       .  S
O139      Zr1552   2.435       .  S
O139        H152   0.989       .  S
C140        O857   1.286   1_545  A
H144        O827   0.964       .  S
H159        O474   0.990       .  S
Zr163       O164   2.445       .  S
Zr163       O165   2.489       .  S
Zr163       O169   2.455       .  S
Zr163      O1606   2.461   1_455  S
Zr163       O172   2.386       .  S
Zr163       O174   2.417       .  S
Zr163      O1611   2.385   1_455  S
Zr163      O1613   2.430   1_455  S
O164        H220   0.991       .  S
O164        H228   0.991       .  S
O165        C185   1.293   1_455  A
O166      Zr1603   2.460       .  S
O166        C187   1.288       .  A
O167       Zr177   2.447       .  S
O167        C186   1.287       .  A
O168       Zr176   2.462       .  S
O168        C187   1.290       .  A
O169        C186   1.286       .  A
O170       Zr178   2.441       .  S
O170       C1625   1.280       .  A
O171       Zr176   2.411       .  S
O171       Zr178   2.389       .  S
O171      Zr1603   2.383       .  S
O172       Zr177   2.398       .  S
O172      Zr1618   2.379   1_455  S
O172        H207   0.966       .  S
O173       Zr176   2.401       .  S
O173       Zr193   2.373       .  S
O173      Zr1603   2.424       .  S
O173        H210   0.962       .  S
O174       Zr177   2.397       .  S
O174      Zr1633   2.406   1_455  S
Zr175       O200   2.439       .  S
Zr175       O194   2.471       .  S
Zr175       O202   2.450       .  S
Zr175       O190   2.460       .  S
Zr175       O181   2.404       .  S
Zr175       O182   2.420       .  S
Zr175       O183   2.376       .  S
Zr175       O184   2.389       .  S
Zr176       O195   2.436       .  S
Zr176       O188   2.436       .  S
Zr176       O189   2.469       .  S
Zr176       O182   2.407       .  S
Zr176       O183   2.395       .  S
Zr177       O179   2.436       .  S
Zr177       O201   2.436       .  S
Zr177      O1643   2.467   1_455  S
Zr177      O1621   2.382   1_455  S
Zr177      O1624   2.398   1_455  S
Zr178       O204   2.436       .  S
Zr178       O205   2.436       .  S
Zr178       O180   2.435       .  S
Zr178       O181   2.391       .  S
Zr178       O182   2.412       .  S
Zr178      O1612   2.383       .  S
O179        H216   0.990       .  S
O180        H211   0.990       .  S
O180        H225   0.990       .  S
O181      Zr1617   2.383       .  S
O182        H208   0.964       .  S
O183       Zr193   2.387       .  S
O184       Zr193   2.384       .  S
O184      Zr1617   2.398       .  S
O184        H209   0.966       .  S
C185       O1610   1.278       .  A
O188        H224   0.990       .  S
O189        C191   1.291       .  A
O190        C191   1.289       .  A
O192      Zr1633   2.438   1_455  S
O192        H221   0.990       .  S
Zr193       O196   2.438       .  S
Zr193      O1632   2.437       .  S
Zr193      O1637   2.438       .  S
Zr193       O198   2.422       .  S
Zr193      O1614   2.406       .  S
O194        C199   1.289       .  A
O195        H212   0.990       .  S
O195        H227   0.990       .  S
O196        H213   0.990       .  S
O197      Zr1633   2.441   1_455  S
O197        H217   0.990       .  S
O197        H226   0.990       .  S
O198        C199   1.277       .  A
O200        H219   0.990       .  S
O200        H223   0.991       .  S
O201        H215   0.989       .  S
O201        H222   0.990       .  S
O202        C206   1.284       .  A
O203      Zr1617   2.470       .  S
O203        C206   1.292       .  A
O204        H214   0.990       .  S
O205        H218   0.990       .  S
Zr229       O230   2.450       .  S
Zr229       O231   2.425       .  S
Zr229       O232   2.376       .  S
Zr229       O235   2.388       .  S
Zr229       O237   2.380       .  S
Zr229       O239   2.415       .  S
Zr229       O598   2.374       .  S
Zr229       O600   2.400       .  S
O230        H286   0.990       .  S
O230        H294   0.989       .  S
O231        C251   1.280       .  A
O232        C253   1.273       .  A
O233       Zr243   2.490       .  S
O233        C252   1.291       .  A
O234       Zr242   2.462       .  S
O234        C253   1.288       .  A
O235        C612   1.268       .  A
O236       Zr244   2.407       .  S
O236        C611   1.278       .  A
O237       Zr242   2.417       .  S
O237       Zr604   2.386       .  S
O238       Zr243   2.373       .  S
O238       Zr244   2.378       .  S
O238       Zr589   2.374   1_554  S
O238        H273   0.965       .  S
O239       Zr242   2.420       .  S
O239       Zr259   2.385       .  S
O239        H276   0.964       .  S
O240       Zr243   2.387       .  S
O240       Zr589   2.402   1_554  S
O240       Zr619   2.394   1_554  S
Zr241       O266   2.439       .  S
Zr241       O260   2.407       .  S
Zr241       O268   2.371       .  S
Zr241       O256   2.356       .  S
Zr241       O247   2.384       .  S
Zr241       O248   2.387       .  S
Zr241       O250   2.382       .  S
Zr241       O249   2.255       .  S
Zr242       O261   2.437       .  S
Zr242       O254   2.435       .  S
Zr242       O255   2.527       .  S
Zr242       O608   2.383       .  S
Zr242       O609   2.271       .  S
Zr243       O245   2.434       .  S
Zr243       O267   2.444       .  S
Zr243       O269   2.457       .  S
Zr243       O247   2.395       .  S
Zr243       O250   2.400       .  S
Zr244       O270   2.434       .  S
Zr244       O271   2.437       .  S
Zr244       O246   2.434       .  S
Zr244       O247   2.389       .  S
Zr244       O248   2.399       .  S
Zr244       O597   2.384   1_554  S
O245        H282   0.990       .  S
O246        H277   0.990       .  S
O246        H651   0.990   1_554  S
O248       Zr602   2.386   1_554  S
O248        H274   0.964       .  S
O249       Zr602   2.274   1_554  S
O249       Zr619   2.270   1_554  S
O250       Zr619   2.374   1_554  S
O250        H275   0.965       .  S
C251        O596   1.278       .  A
C252        C387   1.470   1_554  S
C252        O595   1.268   1_554  A
O254        H290   0.990       .  S
O255        C617   1.303       .  A
O256        C257   1.268       .  A
C257        O615   1.301   1_554  A
O258       Zr259   2.435       .  S
O258        H287   0.990       .  S
Zr259       O262   2.437       .  S
Zr259       O623   2.438       .  S
Zr259       O624   2.417       .  S
Zr259       O600   2.391       .  S
Zr259       O610   2.375       .  S
Zr259       O609   2.271       .  S
O260        C265   1.281       .  A
O261        H278   0.990       .  S
O261        H293   0.990       .  S
O262        H279   0.990       .  S
O263       Zr619   2.439   1_554  S
O263        H283   0.990       .  S
O263        H292   0.989       .  S
O264       Zr619   2.417   1_554  S
O264        C265   1.280       .  A
O266        H285   0.990       .  S
O266        H289   0.990       .  S
O267        H281   0.990       .  S
O267        H288   0.989       .  S
O268        C272   1.274       .  A
O269        C272   1.286       .  A
O270        H280   0.990       .  S
O271        H284   0.988       .  S
H291        O606   0.990       .  S
Zr295       O296   2.449       .  S
Zr295       O297   2.503       .  S
Zr295       O298   2.447       .  S
Zr295       O301   2.421       .  S
Zr295       O303   2.378       .  S
Zr295       O305   2.407       .  S
Zr295      O1024   2.381   1_545  S
Zr295      O1026   2.414   1_545  S
O296        H352   0.991       .  S
O296        H360   0.989       .  S
O297        C317   1.302       .  A
O298        C319   1.288       .  A
O299       Zr309   2.463       .  S
O299        C318   1.290       .  A
O300       Zr308   2.454       .  S
O300        C319   1.288       .  A
O301       C1038   1.282       .  A
O302       Zr310   2.452       .  S
O302       C1037   1.283       .  A
O303       Zr308   2.404       .  S
O303      Zr1030   2.386   1_545  S
O304       Zr309   2.399       .  S
O304       Zr310   2.373       .  S
O304      Zr1015   2.385       .  S
O304        H339   0.966       .  S
O305       Zr308   2.396       .  S
O305      Zr1045   2.371       .  S
O305        H342   0.963       .  S
O306       Zr309   2.387       .  S
O306       Zr325   2.401       .  S
O306      Zr1015   2.412       .  S
Zr307       O332   2.427       .  S
Zr307       O326   2.496       .  S
Zr307       O334   2.458       .  S
Zr307       O322   2.455       .  S
Zr307       O313   2.410       .  S
Zr307       O314   2.419       .  S
Zr307       O315   2.378       .  S
Zr307       O316   2.387       .  S
Zr308       O327   2.438       .  S
Zr308       O320   2.435       .  S
Zr308       O321   2.457   1_545  S
Zr308      O1034   2.399   1_545  S
Zr308      O1035   2.398   1_545  S
Zr309       O311   2.437       .  S
Zr309       O333   2.439       .  S
Zr309       O335   2.468       .  S
Zr309       O313   2.390       .  S
Zr309       O316   2.399       .  S
Zr310       O336   2.435       .  S
Zr310       O337   2.436       .  S
Zr310       O312   2.433       .  S
Zr310       O313   2.399       .  S
Zr310       O314   2.414       .  S
Zr310      O1023   2.384       .  S
O311        H348   0.990       .  S
O312        H343   0.990       .  S
O312       H1077   0.990       .  S
O314      Zr1028   2.400       .  S
O314        H340   0.965       .  S
O315       Zr325   2.386       .  S
O315      Zr1028   2.397       .  S
O316       Zr325   2.388       .  S
O316        H341   0.966       .  S
C317       O1022   1.284   1_545  A
C318        C774   1.478       .  S
C318       O1021   1.284       .  A
O320        H356   0.990       .  S
O321       C1043   1.288       .  A
O322        C323   1.287       .  A
C323       O1041   1.289       .  A
O324      Zr1045   2.438       .  S
O324        H353   0.990       .  S
Zr325       O329   2.440       .  S
Zr325      O1044   2.437       .  S
Zr325      O1048   2.437       .  S
Zr325       O330   2.417       .  S
Zr325      O1025   2.372       .  S
O326        C331   1.297       .  A
O327        H344   0.990       .  S
O327        H359   0.990       .  S
O328      Zr1045   2.439       .  S
O328        H345   0.990       .  S
O329        H349   0.990       .  S
O329        H358   0.989       .  S
O330        C331   1.275       .  A
O332        H351   0.991       .  S
O332        H355   0.991       .  S
O333        H347   0.990       .  S
O333        H354   0.990       .  S
O334        C338   1.282       .  A
O335        C338   1.291       .  A
O336        H346   0.990       .  S
O337        H350   0.990       .  S
H357       O1032   0.990       .  S
C361        C362   1.521       .  S
C361        C367   1.517       .  S
C361        C365   1.552       .  S
C361        C481   1.500       .  S
C362        H369   1.082       .  S
C362        C363   1.375       .  D
C363        C364   1.572       .  S
C363        C416   1.494       .  S
C364        C368   1.560       .  S
C364        C366   1.536       .  S
C364        H370   1.106       .  S
C365        H371   1.084       .  S
C365        C366   1.355       .  D
C366        C683   1.486       .  S
C367        H372   1.088       .  S
C367        C368   1.355       .  D
C368        C566   1.482       .  S
C373        C374   1.520       .  S
C373        C379   1.518       .  S
C373        C377   1.549       .  S
C373        C613   1.493       .  S
C374        H381   1.082       .  S
C374        C375   1.374       .  D
C375        C376   1.574       .  S
C375        C452   1.494       .  S
C376        C380   1.566       .  S
C376        C378   1.543       .  S
C376        H382   1.106       .  S
C377        H383   1.085       .  S
C377        C378   1.353       .  D
C378        C551   1.491       .  S
C379        H384   1.088       .  S
C379        C380   1.354       .  D
C380        C698   1.489       .  S
C385        C386   1.534   1_556  S
C385        C391   1.521       .  S
C385        C479   1.495   1_556  S
C386        C387   1.367   1_554  D
C387        C388   1.543       .  S
C388        C392   1.557       .  S
C388        H394   1.106       .  S
C389        H395   1.081       .  S
C389        C390   1.367       .  D
C390        C423   1.494       .  S
C391        H396   1.088       .  S
C391        C392   1.352       .  D
C392        C559   1.488       .  S
C397        C398   1.535   1_556  S
C397        C403   1.524       .  S
C397        C611   1.495   1_556  S
C398        C399   1.367   1_554  D
C399        C400   1.544       .  S
C400        C404   1.564       .  S
C400        H406   1.106       .  S
C401        H407   1.081       .  S
C401        C402   1.365       .  D
C402        C435   1.499       .  S
C403        H408   1.088       .  S
C403        C404   1.351       .  D
C404        C691   1.496       .  S
C409        C410   1.512       .  S
C409       C1135   1.523   1_545  S
C409       C2573   1.542       .  S
C409        C500   1.489       .  S
C410        H417   1.089       .  S
C410        C411   1.350       .  D
C411        C412   1.564       .  S
C411        C547   1.473       .  S
C412       C1136   1.569   1_545  S
C412       C1854   1.531       .  S
C412       H1858   1.106       .  S
C413       C2569   1.542   1_455  S
C413        H419   1.073       .  S
C413       C1134   1.352       .  D
C414       C1852   1.534   1_455  S
C414       C1133   1.351       .  D
C414       C1398   1.482   1_545  S
C415       C1129   1.520       .  S
C415        H420   1.082       .  S
C415        C416   1.372       .  D
C416       C1132   1.572       .  S
H418       C1852   1.106   1_455  S
C421       C1862   1.539       .  S
C421       C1867   1.522       .  S
C421        C425   1.531   1_655  S
C421       C1933   1.499       .  S
C422       C1861   1.535       .  S
C422        C423   1.369       .  D
C423       C1864   1.552       .  S
C424       C1863   1.552   1_455  S
C424        C428   1.567       .  S
C424        C426   1.548       .  S
C424        H430   1.106       .  S
C425        H431   1.083       .  S
C425        C426   1.365       .  D
C426        C617   1.473       .  S
C427       C1861   1.523       .  S
C427        H432   1.088       .  S
C427       C1868   1.352       .  D
C428       C1867   1.352   1_455  D
C428        C545   1.499   1_455  S
C433        C434   1.536       .  S
C433        C439   1.525       .  S
C433        C437   1.532       .  S
C433        C625   1.498       .  S
C434       C1155   1.368   1_545  D
C435        C436   1.555       .  S
C435       C1154   1.368       .  D
C436       C1160   1.581       .  S
C436       C1158   1.554       .  S
C436        H442   1.106       .  S
C437        H443   1.083       .  S
C437        C438   1.365       .  D
C438       C1156   1.553   1_545  S
C438        C485   1.476       .  S
C439        H444   1.088       .  S
C439        C440   1.352       .  D
C440       C1156   1.578   1_545  S
C440        C677   1.513       .  S
C445        C446   1.511       .  S
C445        C451   1.520       .  S
C445        C449   1.542       .  S
C445        C632   1.481       .  S
C446        H453   1.089       .  S
C446        C447   1.348       .  D
C447        C448   1.564       .  S
C447        C679   1.470       .  S
C448        C452   1.573       .  S
C448        C450   1.532       .  S
C448        H454   1.106       .  S
C449        H455   1.072       .  S
C449        C450   1.353       .  D
C450        C546   1.480       .  S
C451        H456   1.082       .  S
C451        C452   1.370       .  D
Zr457       O458   2.449       .  S
Zr457       O459   2.432       .  S
Zr457       O460   2.372       .  S
Zr457       O463   2.392       .  S
Zr457       O465   2.385       .  S
Zr457       O467   2.419       .  S
O458        H514   0.990       .  S
O458        H522   0.989       .  S
O459        C479   1.282   1_556  A
O460        C481   1.273       .  A
O461       Zr471   2.489       .  S
O461        C480   1.290       .  A
O462      Zr1910   2.479       .  S
O462        C481   1.292       .  A
O464       Zr472   2.393       .  S
O465      Zr1910   2.422       .  S
O466       Zr471   2.376       .  S
O466       Zr472   2.381       .  S
O466        H501   0.965       .  S
O467      Zr1910   2.420       .  S
O467       Zr847   2.377       .  S
O467       H1224   0.964       .  S
O468       Zr471   2.390       .  S
O468      Zr1207   2.394       .  S
Zr469      O1214   2.440   1_545  S
Zr469       O488   2.420       .  S
Zr469      O1936   2.370   1_455  S
Zr469       O484   2.342       .  S
Zr469      O2635   2.380   1_445  S
Zr469      O1196   2.391   1_545  S
Zr469      O1918   2.377   1_455  S
Zr469      O1917   2.254   1_455  S
Zr470      O1209   2.438       .  S
Zr470       O482   2.435       .  S
Zr470      O1902   2.486       .  S
Zr470       O483   2.549       .  S
Zr470      O1905   2.421   1_455  S
Zr470      O1907   2.422   1_455  S
Zr470      O2277   2.273   1_456  S
Zr471      O1193   2.435       .  S
Zr471       O495   2.437       .  S
Zr471       O497   2.457       .  S
Zr471       O475   2.391       .  S
Zr471      O1198   2.395       .  S
Zr472       O498   2.436       .  S
Zr472      O1939   2.436       .  S
Zr472      O1914   2.433       .  S
Zr472       O475   2.381       .  S
Zr472      O1916   2.397       .  S
O473      Zr1191   2.434   1_545  S
O473        H510   0.990       .  S
O474      Zr1912   2.433   1_455  S
O474        H505   0.990       .  S
O475      Zr2629   2.380       .  S
O476      Zr1189   2.387       .  S
O476      Zr1912   2.400   1_455  S
O476        H502   0.964       .  S
O477      Zr1909   2.257       .  S
O477      Zr2270   2.273   1_545  S
O477       Zr487   2.275       .  S
O478      Zr1909   2.380       .  S
O478      Zr1191   2.396   1_545  S
O478       Zr487   2.377       .  S
O478        H503   0.965       .  S
O482        H518   0.989       .  S
O483        C845   1.308   1_556  A
O484        C485   1.266       .  A
C485        O843   1.307   1_545  A
O486        H515   0.990       .  S
Zr487       O491   2.440       .  S
Zr487       O492   2.406       .  S
Zr487       O827   2.375   1_545  S
Zr487      O1188   2.395   1_545  S
O488       C1933   1.284   1_455  A
O489      Zr1190   2.439   1_545  S
O489        H506   0.990       .  S
O489        H521   0.990       .  S
O490        H507   0.990       .  S
O491        H511   0.990       .  S
O491        H520   0.989       .  S
O492        C493   1.278       .  A
C493       C1861   1.494       .  S
C493       O1928   1.283       .  A
O494      Zr1189   2.440       .  S
O494        H513   0.990       .  S
O494        H517   0.989       .  S
O495        H509   0.989       .  S
O495        H516   0.989       .  S
O496      Zr1909   2.371       .  S
O496        C500   1.274       .  A
O497       C1220   1.286       .  A
O498        H508   0.991       .  S
O499      Zr1912   2.437   1_455  S
O499        H512   0.988       .  S
C500       O1217   1.287   1_545  A
H504       O1187   0.964       .  S
Zr523       O524   2.446       .  S
Zr523       O525   2.484       .  S
Zr523      O1966   2.458   1_455  S
Zr523       O529   2.452       .  S
Zr523      O1971   2.384   1_455  S
Zr523       O532   2.382       .  S
Zr523      O1973   2.429   1_455  S
Zr523       O534   2.419       .  S
O524        H580   0.990       .  S
O524        H588   0.991       .  S
O525        C545   1.292   1_455  A
O526      Zr1963   2.462       .  S
O526        C547   1.289       .  A
O527       Zr537   2.444       .  S
O527        C546   1.286       .  A
O528       Zr536   2.454       .  S
O528        C547   1.289       .  A
O529        C546   1.286       .  A
O530       Zr538   2.431       .  S
O530       C1985   1.277       .  A
O531      Zr1963   2.382       .  S
O531       Zr536   2.409       .  S
O531       Zr538   2.388       .  S
O532       Zr537   2.402       .  S
O532      Zr1978   2.377   1_455  S
O532        H567   0.966       .  S
O533      Zr1963   2.426       .  S
O533       Zr536   2.408       .  S
O533       Zr553   2.374       .  S
O533        H570   0.963       .  S
O534       Zr537   2.404       .  S
O534      Zr1993   2.409   1_455  S
Zr535       O560   2.437       .  S
Zr535       O554   2.473       .  S
Zr535       O562   2.449       .  S
Zr535       O550   2.458       .  S
Zr535       O541   2.406       .  S
Zr535       O542   2.421       .  S
Zr535       O543   2.376       .  S
Zr535       O544   2.389       .  S
Zr536       O555   2.437       .  S
Zr536       O548   2.435       .  S
Zr536       O549   2.469       .  S
Zr536       O542   2.403       .  S
Zr536       O543   2.395       .  S
Zr537       O539   2.437       .  S
Zr537       O561   2.439       .  S
Zr537      O2003   2.471   1_455  S
Zr537      O1981   2.381   1_455  S
Zr537      O1984   2.398   1_455  S
Zr538       O564   2.434       .  S
Zr538       O565   2.435       .  S
Zr538       O540   2.439       .  S
Zr538      O1972   2.379       .  S
Zr538       O541   2.392       .  S
Zr538       O542   2.411       .  S
O539        H576   0.990       .  S
O540        H571   0.990       .  S
O540        H585   0.990       .  S
O541      Zr1977   2.381       .  S
O542        H568   0.965       .  S
O543       Zr553   2.387       .  S
O544      Zr1977   2.398       .  S
O544       Zr553   2.385       .  S
O544        H569   0.966       .  S
C545       O1970   1.277       .  A
O548        H584   0.990       .  S
O549        C551   1.292       .  A
O550        C551   1.288       .  A
O552      Zr1993   2.437   1_455  S
O552        H581   0.990       .  S
Zr553      O1992   2.436       .  S
Zr553       O556   2.438       .  S
Zr553      O1997   2.437       .  S
Zr553       O558   2.419       .  S
Zr553      O1974   2.403       .  S
O554        C559   1.289       .  A
O555        H572   0.990       .  S
O555        H587   0.990       .  S
O556        H573   0.990       .  S
O557      Zr1993   2.440   1_455  S
O557        H577   0.990       .  S
O557        H586   0.990       .  S
O558        C559   1.275       .  A
O560        H579   0.990       .  S
O560        H583   0.991       .  S
O561        H575   0.990       .  S
O561        H582   0.990       .  S
O562        C566   1.284       .  A
O563      Zr1977   2.465       .  S
O563        C566   1.291       .  A
O564        H574   0.990       .  S
O565        H578   0.990       .  S
Zr589       O590   2.449       .  S
Zr589       O591   2.430       .  S
Zr589       O592   2.375       .  S
Zr589       O595   2.386       .  S
Zr589       O597   2.379       .  S
Zr589       O599   2.415       .  S
O590        H646   0.991       .  S
O590        H654   0.989       .  S
O591        C611   1.282   1_556  A
O592        C613   1.273       .  A
O593       Zr603   2.482       .  S
O593        C612   1.289       .  A
O594       Zr602   2.460       .  S
O594        C613   1.288       .  A
O596       Zr604   2.405       .  S
O597       Zr602   2.413       .  S
O598       Zr603   2.376       .  S
O598       Zr604   2.378       .  S
O598        H633   0.965       .  S
O599       Zr602   2.419       .  S
O599       Zr619   2.381       .  S
O599        H636   0.964       .  S
O600       Zr603   2.387       .  S
Zr601       O626   2.440       .  S
Zr601       O620   2.406       .  S
Zr601       O628   2.365       .  S
Zr601       O616   2.353       .  S
Zr601       O607   2.380       .  S
Zr601       O608   2.383       .  S
Zr601       O610   2.385       .  S
Zr601       O609   2.251       .  S
Zr602       O621   2.440       .  S
Zr602       O614   2.435       .  S
Zr602       O615   2.521       .  S
Zr603       O605   2.436       .  S
Zr603       O627   2.443       .  S
Zr603       O629   2.449       .  S
Zr603       O607   2.391       .  S
Zr603       O610   2.401       .  S
Zr604       O630   2.436       .  S
Zr604       O631   2.436       .  S
Zr604       O606   2.428       .  S
Zr604       O607   2.378       .  S
Zr604       O608   2.399       .  S
O605        H642   0.990       .  S
O606        H637   0.990       .  S
O608        H634   0.964       .  S
O610        H635   0.965       .  S
O614        H650   0.990       .  S
O616        C617   1.268       .  A
O618       Zr619   2.435       .  S
O618        H647   0.990       .  S
Zr619       O622   2.438       .  S
O620        C625   1.281       .  A
O621        H638   0.990       .  S
O621        H653   0.989       .  S
O622        H639   0.990       .  S
O623        H643   0.990       .  S
O623        H652   0.989       .  S
O624        C625   1.280       .  A
O626        H645   0.990       .  S
O626        H649   0.990       .  S
O627        H641   0.990       .  S
O627        H648   0.989       .  S
O628        C632   1.273       .  A
O629        C632   1.285       .  A
O630        H640   0.990       .  S
O631        H644   0.989       .  S
Zr655       O656   2.449       .  S
Zr655       O657   2.501       .  S
Zr655       O658   2.448       .  S
Zr655       O661   2.438       .  S
Zr655       O663   2.385       .  S
Zr655      O1384   2.384   1_545  S
Zr655       O665   2.412       .  S
Zr655      O1386   2.408   1_545  S
O656        H712   0.991       .  S
O656        H720   0.990       .  S
O657        C677   1.301       .  A
O658        C679   1.288       .  A
O659       Zr669   2.464       .  S
O659        C678   1.290       .  A
O660       Zr668   2.448       .  S
O660        C679   1.287       .  A
O661       C1398   1.285   1_545  A
O662       Zr670   2.457       .  S
O662       C1397   1.284       .  A
O663       Zr668   2.408       .  S
O663      Zr1390   2.386   1_545  S
O664      Zr1375   2.385       .  S
O664       Zr669   2.399       .  S
O664       Zr670   2.369       .  S
O664        H699   0.966       .  S
O665       Zr668   2.398       .  S
O665      Zr1405   2.374       .  S
O665        H702   0.964       .  S
O666      Zr1375   2.416       .  S
O666       Zr669   2.392       .  S
O666       Zr685   2.401       .  S
Zr667       O692   2.428       .  S
Zr667       O686   2.496       .  S
Zr667       O694   2.452       .  S
Zr667       O682   2.450       .  S
Zr667       O673   2.411       .  S
Zr667       O674   2.422       .  S
Zr667       O675   2.373       .  S
Zr667       O676   2.385       .  S
Zr668       O687   2.438       .  S
Zr668       O680   2.437       .  S
Zr668       O681   2.461   1_545  S
Zr668      O1394   2.397   1_545  S
Zr668      O1395   2.396   1_545  S
Zr669       O671   2.438       .  S
Zr669       O693   2.438       .  S
Zr669       O695   2.475       .  S
Zr669       O673   2.386       .  S
Zr669       O676   2.401       .  S
Zr670       O696   2.435       .  S
Zr670       O697   2.437       .  S
Zr670       O672   2.427       .  S
Zr670      O1383   2.387       .  S
Zr670       O673   2.399       .  S
Zr670       O674   2.420       .  S
O671        H708   0.990       .  S
O672        H703   0.990       .  S
O672       H1437   0.990       .  S
O674      Zr1388   2.400       .  S
O674        H700   0.965       .  S
O675      Zr1388   2.397       .  S
O675       Zr685   2.384       .  S
O676       Zr685   2.385       .  S
O676        H701   0.966       .  S
C677       O1382   1.283   1_545  A
C678       C1134   1.476       .  S
C678       O1381   1.283       .  A
O680        H716   0.990       .  S
O681       C1403   1.289       .  A
O682        C683   1.286       .  A
C683       O1401   1.289       .  A
O684      Zr1405   2.436       .  S
O684        H713   0.990       .  S
Zr685      O1404   2.436       .  S
Zr685      O1408   2.437       .  S
Zr685       O689   2.439       .  S
Zr685       O690   2.415       .  S
Zr685      O1385   2.372       .  S
O686        C691   1.296       .  A
O687        H704   0.990       .  S
O687        H719   0.990       .  S
O688      Zr1405   2.436       .  S
O688        H705   0.990       .  S
O689        H709   0.990       .  S
O689        H718   0.990       .  S
O690        C691   1.275       .  A
O692        H711   0.991       .  S
O692        H715   0.990       .  S
O693        H707   0.990       .  S
O693        H714   0.990       .  S
O694        C698   1.280       .  A
O695        C698   1.293       .  A
O696        H706   0.990       .  S
O697        H710   0.990       .  S
H717       O1392   0.990       .  S
C721        C722   1.519       .  S
C721        C727   1.516       .  S
C721        C725   1.552       .  S
C721        C841   1.496       .  S
C722        H729   1.082       .  S
C722        C723   1.375       .  D
C723        C724   1.572       .  S
C723        C776   1.494       .  S
C724        C728   1.561       .  S
C724        C726   1.537       .  S
C724        H730   1.106       .  S
C725        H731   1.084       .  S
C725        C726   1.356       .  D
C726       C1043   1.487       .  S
C727        H732   1.088       .  S
C727        C728   1.353       .  D
C728        C926   1.481       .  S
C733        C734   1.520       .  S
C733        C739   1.518       .  S
C733        C737   1.551       .  S
C733        C973   1.496       .  S
C734        H741   1.082       .  S
C734        C735   1.374       .  D
C735        C736   1.577       .  S
C735        C812   1.498       .  S
C736        C740   1.567       .  S
C736        C738   1.541       .  S
C736        H742   1.106       .  S
C737        H743   1.084       .  S
C737        C738   1.351       .  D
C738        C911   1.489       .  S
C739        H744   1.088       .  S
C739        C740   1.355       .  D
C740       C1058   1.489       .  S
C745        C746   1.536       .  S
C745        C751   1.521       .  S
C745       C1109   1.534       .  S
C745        C839   1.492       .  S
C746       H1113   1.086       .  S
C746        C747   1.368       .  D
C747        C748   1.544       .  S
C747       C1332   1.472       .  S
C748        C752   1.559       .  S
C748       C1110   1.550       .  S
C748        H754   1.106       .  S
C749       C1105   1.536   1_554  S
C749        H755   1.081       .  S
C749        C750   1.367       .  D
C750       C1108   1.551   1_554  S
C750        C783   1.496       .  S
C751        H756   1.088       .  S
C751        C752   1.350       .  D
C752        C919   1.491       .  S
H753       C1106   1.086       .  S
C757        C758   1.535       .  S
C757        C763   1.521       .  S
C757       C1121   1.538       .  S
C757        C971   1.495       .  S
C758       H1125   1.086       .  S
C758        C759   1.367       .  D
C759        C760   1.543       .  S
C759       C1200   1.471       .  S
C760        C764   1.561       .  S
C760       C1122   1.555       .  S
C760        H766   1.106       .  S
C761       C1117   1.534   1_554  S
C761        H767   1.081       .  S
C761        C762   1.364       .  D
C762       C1120   1.556   1_554  S
C762        C795   1.497       .  S
C763        H768   1.088       .  S
C763        C764   1.351       .  D
C764       C1051   1.491       .  S
H765       C1118   1.086       .  S
C769        C770   1.513       .  S
C769       C1493   1.541       .  S
C769        C860   1.489       .  S
C770        H777   1.089       .  S
C770        C771   1.351       .  D
C771        C772   1.566       .  S
C771        C907   1.478       .  S
C772       C2214   1.532       .  S
C772       H2218   1.106       .  S
C773       C1489   1.543   1_455  S
C773        H779   1.070   1_545  S
C774       C2212   1.532   1_455  S
C775        H780   1.082       .  S
C775        C776   1.372       .  D
H778       C2212   1.106   1_455  S
C781       C2222   1.537       .  S
C781       C2227   1.523       .  S
C781        C785   1.529   1_655  S
C781       C2293   1.496       .  S
C782       C2221   1.539       .  S
C782       H1149   1.082       .  S
C782        C783   1.370       .  D
C783       C2224   1.551       .  S
C784       C2223   1.550   1_455  S
C784        C788   1.566       .  S
C784        C786   1.547       .  S
C784        H790   1.106       .  S
C785        H791   1.083       .  S
C785        C786   1.363       .  D
C786        C977   1.467       .  S
C787       C2221   1.524       .  S
C787        H792   1.088       .  S
C787       C2228   1.354       .  D
C788       C2227   1.352   1_455  D
C788        C905   1.498   1_455  S
H789       C1142   1.082       .  S
C793        C794   1.536       .  S
C793        C799   1.526       .  S
C793        C797   1.532       .  S
C793        C985   1.499       .  S
C794       H1161   1.082       .  S
C795        C796   1.555       .  S
C796        H802   1.106       .  S
C797        H803   1.082       .  S
C797        C798   1.365       .  D
C798        C845   1.478       .  S
C799        H804   1.088       .  S
C799        C800   1.354       .  D
C800       C1037   1.513       .  S
H801       C1154   1.082       .  S
C805        C806   1.513       .  S
C805        C811   1.521       .  S
C805        C809   1.543       .  S
C805        C992   1.487       .  S
C806        H813   1.089       .  S
C806        C807   1.348       .  D
C807        C808   1.564       .  S
C807       C1039   1.474       .  S
C808        C812   1.576       .  S
C808        C810   1.534       .  S
C808        H814   1.107       .  S
C809        H815   1.074       .  S
C809        C810   1.354       .  D
C810        C906   1.481       .  S
C811        H816   1.082       .  S
C811        C812   1.371       .  D
Zr817       O818   2.449       .  S
Zr817       O819   2.427       .  S
Zr817       O820   2.370       .  S
Zr817       O823   2.390       .  S
Zr817       O825   2.385       .  S
Zr817      O1186   2.371       .  S
Zr817       O827   2.417       .  S
Zr817      O1188   2.399       .  S
O818        H874   0.990       .  S
O818        H882   0.989       .  S
O819        C839   1.281       .  A
O820        C841   1.272       .  A
O821       Zr831   2.485       .  S
O821        C840   1.290       .  A
O822      Zr2270   2.474       .  S
O822        C841   1.291       .  A
O823       C1200   1.270       .  A
O824       Zr832   2.400       .  S
O824       C1199   1.276       .  A
O825      Zr2270   2.421       .  S
O825      Zr1192   2.384       .  S
O826      Zr1177   2.373   1_554  S
O826       Zr831   2.376       .  S
O826       Zr832   2.380       .  S
O826        H861   0.965       .  S
O827      Zr2270   2.424       .  S
O828      Zr1177   2.396   1_554  S
O828       Zr831   2.389       .  S
Zr829       O848   2.412       .  S
Zr829      O2296   2.369   1_455  S
Zr829       O844   2.341       .  S
Zr829      O1555   2.379   1_455  S
Zr829      O2278   2.378   1_455  S
Zr829      O2277   2.253   1_455  S
Zr830       O842   2.436       .  S
Zr830      O2262   2.480   1_455  S
Zr830       O843   2.543       .  S
Zr830      O2265   2.418   1_455  S
Zr830      O2267   2.423   1_455  S
Zr830      O1196   2.387       .  S
Zr830      O1917   2.271   1_465  S
Zr831       O855   2.440       .  S
Zr831       O857   2.456       .  S
Zr831       O835   2.386       .  S
Zr832       O858   2.434       .  S
Zr832      O2299   2.438       .  S
Zr832      O2274   2.435       .  S
Zr832      O1185   2.380   1_554  S
Zr832       O835   2.380       .  S
Zr832      O2276   2.398       .  S
O833        H870   0.990       .  S
O834      Zr2272   2.434       .  S
O834        H865   0.990       .  S
O834       H1239   0.990   1_554  S
O835      Zr1549   2.378   1_565  S
O836      Zr1190   2.380   1_554  S
O836      Zr2272   2.396       .  S
O836        H862   0.964       .  S
O837      Zr2269   2.256       .  S
O837      Zr1910   2.272   1_554  S
O837       Zr847   2.273   1_554  S
O838      Zr2269   2.378       .  S
O838       Zr847   2.379   1_554  S
O838        H863   0.965       .  S
C839       O1184   1.277       .  A
C840       C1119   1.471   1_554  S
C840       O1183   1.270   1_554  A
O842        H878   0.990       .  S
O844        C845   1.266       .  A
O846      Zr1207   2.434       .  S
O846        H875   0.990       .  S
Zr847      O1206   2.434       .  S
Zr847      O1210   2.438       .  S
Zr847       O851   2.437   1_556  S
Zr847       O852   2.409   1_556  S
O848       C2293   1.283   1_455  A
O849        H866   0.990       .  S
O849        H881   0.990       .  S
O850      Zr1207   2.438       .  S
O850        H867   0.990       .  S
O851        H871   0.990       .  S
O851        H880   0.989       .  S
O852        C853   1.278       .  A
C853       C2221   1.499       .  S
C853       O2288   1.284       .  A
O854        H873   0.990       .  S
O854        H877   0.989       .  S
O855        H869   0.989       .  S
O855        H876   0.989       .  S
O856      Zr2269   2.369       .  S
O856        C860   1.274       .  A
O858        H868   0.990       .  S
O859      Zr2272   2.437       .  S
O859        H872   0.988       .  S
H879       O1194   0.990       .  S
Zr883       O884   2.445       .  S
Zr883       O885   2.484       .  S
Zr883      O2326   2.458   1_455  S
Zr883       O889   2.454       .  S
Zr883      O2331   2.382   1_455  S
Zr883       O892   2.384       .  S
Zr883      O2333   2.430   1_455  S
Zr883       O894   2.419       .  S
O884        H940   0.991       .  S
O884        H948   0.991       .  S
O885        C905   1.292   1_455  A
O886      Zr2323   2.464       .  S
O886        C907   1.289       .  A
O887       Zr897   2.443       .  S
O887        C906   1.286       .  A
O888       Zr896   2.456       .  S
O888        C907   1.289       .  A
O889        C906   1.286       .  A
O890       Zr898   2.440       .  S
O890       C2345   1.279       .  A
O891      Zr2323   2.382       .  S
O891       Zr896   2.408       .  S
O891       Zr898   2.390       .  S
O892       Zr897   2.400       .  S
O892      Zr2338   2.381   1_455  S
O892        H927   0.966       .  S
O893      Zr2323   2.428       .  S
O893       Zr896   2.403       .  S
O893       Zr913   2.378       .  S
O893        H930   0.963       .  S
O894       Zr897   2.401       .  S
O894      Zr2353   2.409   1_455  S
Zr895       O920   2.438       .  S
Zr895       O914   2.483       .  S
Zr895       O922   2.447       .  S
Zr895       O910   2.462       .  S
Zr895       O901   2.410       .  S
Zr895       O902   2.423       .  S
Zr895       O903   2.373       .  S
Zr895       O904   2.386       .  S
Zr896       O915   2.435       .  S
Zr896       O908   2.435       .  S
Zr896       O909   2.461       .  S
Zr896       O902   2.404       .  S
Zr896       O903   2.395       .  S
Zr897       O899   2.438       .  S
Zr897       O921   2.437       .  S
Zr897      O2363   2.460   1_455  S
Zr897      O2341   2.379   1_455  S
Zr897      O2344   2.396   1_455  S
Zr898       O924   2.436       .  S
Zr898       O925   2.437       .  S
Zr898       O900   2.435       .  S
Zr898      O2332   2.379       .  S
Zr898       O901   2.392       .  S
Zr898       O902   2.414       .  S
O899        H936   0.990       .  S
O900        H931   0.990       .  S
O900        H945   0.990       .  S
O901      Zr2337   2.382       .  S
O902        H928   0.964       .  S
O903       Zr913   2.389       .  S
O904      Zr2337   2.395       .  S
O904       Zr913   2.382       .  S
O904        H929   0.966       .  S
C905       O2330   1.277       .  A
O908        H944   0.990       .  S
O909        C911   1.289       .  A
O910        C911   1.289       .  A
O912      Zr2353   2.438   1_455  S
O912        H941   0.990       .  S
Zr913      O2352   2.439       .  S
Zr913       O916   2.438       .  S
Zr913      O2357   2.442       .  S
Zr913       O918   2.418       .  S
Zr913      O2334   2.405       .  S
O914        C919   1.291       .  A
O915        H932   0.990       .  S
O915        H947   0.990       .  S
O916        H933   0.990       .  S
O917      Zr2353   2.441   1_455  S
O917        H937   0.990       .  S
O917        H946   0.990       .  S
O918        C919   1.275       .  A
O920        H939   0.990       .  S
O920        H943   0.991       .  S
O921        H935   0.990       .  S
O921        H942   0.990       .  S
O922        C926   1.284       .  A
O923      Zr2337   2.469       .  S
O923        C926   1.292       .  A
O924        H934   0.990       .  S
O925        H938   0.990       .  S
Zr949       O950   2.449       .  S
Zr949       O951   2.436       .  S
Zr949       O952   2.364       .  S
Zr949       O955   2.388       .  S
Zr949       O957   2.379       .  S
Zr949      O1318   2.371       .  S
Zr949       O959   2.420       .  S
Zr949      O1320   2.398       .  S
O950       H1006   0.990       .  S
O950       H1014   0.989       .  S
O951        C971   1.283       .  A
O952        C973   1.272       .  A
O953       Zr963   2.477       .  S
O953        C972   1.288       .  A
O954       Zr962   2.465       .  S
O954        C973   1.289       .  A
O955       C1332   1.268       .  A
O956       Zr964   2.407       .  S
O956       C1331   1.278       .  A
O957       Zr962   2.414       .  S
O957      Zr1324   2.380       .  S
O958      Zr1309   2.377   1_554  S
O958       Zr963   2.381       .  S
O958       Zr964   2.377       .  S
O958        H993   0.965       .  S
O959       Zr962   2.420       .  S
O959       Zr979   2.380       .  S
O959        H996   0.964       .  S
O960      Zr1309   2.402   1_554  S
O960       Zr963   2.391       .  S
O960      Zr1339   2.393   1_554  S
Zr961       O986   2.437       .  S
Zr961       O980   2.408       .  S
Zr961       O988   2.359       .  S
Zr961       O976   2.341       .  S
Zr961       O967   2.376       .  S
Zr961       O968   2.385       .  S
Zr961       O970   2.379       .  S
Zr961       O969   2.255       .  S
Zr962       O981   2.437       .  S
Zr962       O974   2.438       .  S
Zr962       O975   2.526       .  S
Zr962      O1328   2.382       .  S
Zr962      O1329   2.275       .  S
Zr963       O965   2.435       .  S
Zr963       O987   2.440       .  S
Zr963       O989   2.462       .  S
Zr963       O967   2.386       .  S
Zr963       O970   2.395       .  S
Zr964       O990   2.434       .  S
Zr964       O991   2.436       .  S
Zr964       O966   2.433       .  S
Zr964      O1317   2.380   1_554  S
Zr964       O967   2.385       .  S
Zr964       O968   2.399       .  S
O965       H1002   0.990       .  S
O966        H997   0.990       .  S
O966       H1371   0.990   1_554  S
O968      Zr1322   2.381   1_554  S
O968        H994   0.964       .  S
O969      Zr1322   2.273   1_554  S
O969      Zr1339   2.270   1_554  S
O970      Zr1339   2.379   1_554  S
O970        H995   0.965       .  S
C971       O1316   1.276       .  A
C972       C1107   1.465   1_554  S
C972       O1315   1.269   1_554  A
O974       H1010   0.990       .  S
O975       C1337   1.303       .  A
O976        C977   1.266       .  A
C977       O1335   1.303   1_554  A
O978       Zr979   2.435       .  S
O978       H1007   0.990       .  S
Zr979       O982   2.439       .  S
Zr979      O1343   2.439       .  S
Zr979      O1344   2.416       .  S
Zr979      O1320   2.395       .  S
Zr979      O1330   2.376       .  S
Zr979      O1329   2.273       .  S
O980        C985   1.282       .  A
O981        H998   0.990       .  S
O981       H1013   0.990       .  S
O982        H999   0.990       .  S
O983      Zr1339   2.437   1_554  S
O983       H1003   0.990       .  S
O983       H1012   0.990       .  S
O984      Zr1339   2.417   1_554  S
O984        C985   1.280       .  A
O986       H1005   0.990       .  S
O986       H1009   0.989       .  S
O987       H1001   0.990       .  S
O987       H1008   0.989       .  S
O988        C992   1.272       .  A
O989        C992   1.287       .  A
O990       H1000   0.990       .  S
O991       H1004   0.989       .  S
H1011      O1326   0.990       .  S
Zr1015     O1016   2.446       .  S
Zr1015     O1017   2.500       .  S
Zr1015     O1018   2.447       .  S
Zr1015     O1021   2.429       .  S
Zr1015     O1023   2.377       .  S
Zr1015     O1025   2.409       .  S
O1016      H1072   0.991       .  S
O1016      H1080   0.990       .  S
O1017      C1037   1.301       .  A
O1018      C1039   1.288       .  A
O1019     Zr1029   2.471       .  S
O1019      C1038   1.292   1_565  A
O1020     Zr1028   2.455       .  S
O1020      C1039   1.288       .  A
O1022     Zr1030   2.453       .  S
O1023     Zr1028   2.403       .  S
O1024     Zr1029   2.394       .  S
O1024     Zr1030   2.367       .  S
O1024      H1059   0.966       .  S
O1025     Zr1028   2.394       .  S
O1025      H1062   0.964       .  S
O1026     Zr1029   2.391       .  S
O1026     Zr1045   2.397   1_565  S
Zr1027     O1052   2.427       .  S
Zr1027     O1046   2.486       .  S
Zr1027     O1054   2.449       .  S
Zr1027     O1042   2.454       .  S
Zr1027     O1033   2.414       .  S
Zr1027     O1034   2.418       .  S
Zr1027     O1035   2.373       .  S
Zr1027     O1036   2.388       .  S
Zr1028     O1047   2.438       .  S
Zr1028     O1040   2.436       .  S
Zr1028     O1041   2.459       .  S
Zr1029     O1031   2.436       .  S
Zr1029     O1053   2.439       .  S
Zr1029     O1055   2.473       .  S
Zr1029     O1033   2.393       .  S
Zr1029     O1036   2.405       .  S
Zr1030     O1056   2.436       .  S
Zr1030     O1057   2.437       .  S
Zr1030     O1032   2.433       .  S
Zr1030     O1033   2.403       .  S
Zr1030     O1034   2.418       .  S
O1031      H1068   0.990       .  S
O1032      H1063   0.990       .  S
O1034      H1060   0.965       .  S
O1035     Zr1045   2.387   1_565  S
O1036     Zr1045   2.389   1_565  S
O1036      H1061   0.966       .  S
O1040      H1076   0.990       .  S
O1042      C1043   1.286       .  A
O1044      H1073   0.990       .  S
Zr1045     O1049   2.440   1_545  S
Zr1045     O1050   2.413   1_545  S
O1046      C1051   1.294       .  A
O1047      H1064   0.990       .  S
O1047      H1079   0.990       .  S
O1048      H1065   0.990       .  S
O1049      H1069   0.990   1_565  S
O1049      H1078   0.989       .  S
O1050      C1051   1.275       .  A
O1052      H1071   0.991       .  S
O1052      H1075   0.990       .  S
O1053      H1067   0.990       .  S
O1053      H1074   0.990       .  S
O1054      C1058   1.282       .  A
O1055      C1058   1.292       .  A
O1056      H1066   0.990       .  S
O1057      H1070   0.990       .  S
C1081      C1082   1.522       .  S
C1081      C1087   1.515       .  S
C1081      C1085   1.549       .  S
C1081      C1201   1.495       .  S
C1082      H1089   1.082       .  S
C1082      C1083   1.376       .  D
C1083      C1084   1.571       .  S
C1083      C1136   1.495       .  S
C1084      C1088   1.560       .  S
C1084      C1086   1.538       .  S
C1084      H1090   1.106       .  S
C1085      H1091   1.084       .  S
C1085      C1086   1.355       .  D
C1086      C1403   1.485       .  S
C1087      H1092   1.088       .  S
C1087      C1088   1.353       .  D
C1088      C1286   1.480       .  S
C1093      C1094   1.522       .  S
C1093      C1099   1.516       .  S
C1093      C1097   1.547       .  S
C1093      C1333   1.494       .  S
C1094      H1101   1.082       .  S
C1094      C1095   1.374       .  D
C1095      C1096   1.576       .  S
C1095      C1172   1.498       .  S
C1096      C1100   1.567       .  S
C1096      C1098   1.541       .  S
C1096      H1102   1.106       .  S
C1097      H1103   1.083       .  S
C1097      C1098   1.354       .  D
C1098      C1271   1.490       .  S
C1099      H1104   1.088       .  S
C1099      C1100   1.353       .  D
C1100      C1418   1.487       .  S
C1105      C1106   1.531   1_556  S
C1105      C1111   1.522       .  S
C1105      C1199   1.493   1_556  S
C1106      C1107   1.366   1_554  D
C1107      C1108   1.543       .  S
C1108      C1112   1.556       .  S
C1108      H1114   1.107       .  S
C1109      H1115   1.081       .  S
C1109      C1110   1.367       .  D
C1110      C1143   1.493       .  S
C1111      H1116   1.088       .  S
C1111      C1112   1.352       .  D
C1112      C1279   1.487       .  S
C1117      C1118   1.535   1_556  S
C1117      C1123   1.524       .  S
C1117      C1331   1.494   1_556  S
C1118      C1119   1.368   1_554  D
C1119      C1120   1.543       .  S
C1120      C1124   1.563       .  S
C1120      H1126   1.107       .  S
C1121      H1127   1.081       .  S
C1121      C1122   1.366       .  D
C1122      C1155   1.499       .  S
C1123      H1128   1.088       .  S
C1123      C1124   1.351       .  D
C1124      C1411   1.495       .  S
C1129      C1130   1.513       .  S
C1129      C1853   1.542       .  S
C1129      C1220   1.484       .  S
C1130      H1137   1.089       .  S
C1130      C1131   1.349       .  D
C1131      C1132   1.567       .  S
C1131      C1267   1.479       .  S
C1132      C2574   1.533       .  S
C1132      H2578   1.106       .  S
C1133      C1849   1.542   1_455  S
C1133      H1139   1.072   1_545  S
C1134      C2572   1.530   1_455  S
C1135      H1140   1.082       .  S
C1135      C1136   1.373       .  D
H1138      C2572   1.106   1_455  S
C1141      C2582   1.535       .  S
C1141      C2587   1.523       .  S
C1141      C1145   1.531   1_655  S
C1141      C2653   1.495       .  S
C1142      C2581   1.539       .  S
C1142      C1143   1.370       .  D
C1143      C2584   1.549       .  S
C1144      C2583   1.554   1_455  S
C1144      C1148   1.569       .  S
C1144      C1146   1.549       .  S
C1144      H1150   1.106       .  S
C1145      H1151   1.083       .  S
C1145      C1146   1.364       .  D
C1146      C1337   1.472       .  S
C1147      C2581   1.522       .  S
C1147      H1152   1.088       .  S
C1147      C2588   1.353       .  D
C1148      C2587   1.352   1_455  D
C1148      C1265   1.503   1_455  S
C1153      C1154   1.536       .  S
C1153      C1159   1.526       .  S
C1153      C1157   1.531       .  S
C1153      C1345   1.499       .  S
C1155      C1156   1.555       .  S
C1156      H1162   1.106       .  S
C1157      H1163   1.084       .  S
C1157      C1158   1.364       .  D
C1158      C1205   1.476       .  S
C1159      H1164   1.088       .  S
C1159      C1160   1.353       .  D
C1160      C1397   1.519       .  S
C1165      C1166   1.511       .  S
C1165      C1171   1.521       .  S
C1165      C1169   1.542       .  S
C1165      C1352   1.485       .  S
C1166      H1173   1.089       .  S
C1166      C1167   1.348       .  D
C1167      C1168   1.569       .  S
C1167      C1399   1.475       .  S
C1168      C1172   1.575       .  S
C1168      C1170   1.536       .  S
C1168      H1174   1.107       .  S
C1169      H1175   1.074       .  S
C1169      C1170   1.353       .  D
C1170      C1266   1.483       .  S
C1171      H1176   1.082       .  S
C1171      C1172   1.371       .  D
Zr1177     O1178   2.449       .  S
Zr1177     O1179   2.428       .  S
Zr1177     O1180   2.380       .  S
Zr1177     O1183   2.393       .  S
Zr1177     O1185   2.380       .  S
Zr1177     O1187   2.412       .  S
O1178      H1234   0.990       .  S
O1178      H1242   0.989       .  S
O1179      C1199   1.281   1_556  A
O1180      C1201   1.274       .  A
O1181     Zr1191   2.489       .  S
O1181      C1200   1.290       .  A
O1182     Zr2630   2.468       .  S
O1182      C1201   1.289       .  A
O1184     Zr1192   2.401       .  S
O1185     Zr2630   2.418       .  S
O1186     Zr1191   2.370       .  S
O1186     Zr1192   2.379       .  S
O1186      H1221   0.965       .  S
O1187     Zr2630   2.427       .  S
O1188     Zr1191   2.390       .  S
Zr1189     O1208   2.409       .  S
Zr1189     O2656   2.369   1_455  S
Zr1189     O1204   2.343       .  S
Zr1189     O1915   2.377   1_455  S
Zr1189     O2638   2.376   1_455  S
Zr1189     O2637   2.252   1_455  S
Zr1190     O1202   2.434       .  S
Zr1190     O2622   2.468       .  S
Zr1190     O1203   2.545       .  S
Zr1190     O2625   2.418   1_455  S
Zr1190     O2627   2.425   1_455  S
Zr1190     O1557   2.364   1_465  S
Zr1191     O1215   2.443       .  S
Zr1191     O1217   2.458       .  S
Zr1191     O1195   2.392       .  S
Zr1192     O1218   2.434       .  S
Zr1192     O2659   2.437       .  S
Zr1192     O2634   2.432       .  S
Zr1192     O1195   2.384       .  S
Zr1192     O2636   2.395       .  S
O1193      H1230   0.990       .  S
O1194     Zr2632   2.432       .  S
O1194      H1225   0.990       .  S
O1195     Zr1909   2.378   1_565  S
O1196     Zr2632   2.398       .  S
O1196      H1222   0.965       .  S
O1197     Zr2629   2.252       .  S
O1197     Zr1550   2.274       .  S
O1197     Zr1207   2.272       .  S
O1198     Zr2629   2.377       .  S
O1198     Zr1207   2.375       .  S
O1198      H1223   0.965       .  S
O1202      H1238   0.989       .  S
O1204      C1205   1.266       .  A
O1206      H1235   0.990       .  S
Zr1207     O1211   2.441       .  S
Zr1207     O1212   2.401       .  S
O1208      C2653   1.282   1_455  A
O1209      H1226   0.990       .  S
O1209      H1241   0.990       .  S
O1210      H1227   0.990       .  S
O1211      H1231   0.990       .  S
O1211      H1240   0.989       .  S
O1212      C1213   1.277       .  A
C1213      C2581   1.495       .  S
C1213      O2648   1.284       .  A
O1214      H1233   0.990       .  S
O1214      H1237   0.989       .  S
O1215      H1229   0.990       .  S
O1215      H1236   0.989       .  S
O1216     Zr2629   2.363       .  S
O1216      C1220   1.272       .  A
O1218      H1228   0.990       .  S
O1219     Zr2632   2.435       .  S
O1219      H1232   0.989       .  S
Zr1243     O1244   2.445       .  S
Zr1243     O1245   2.489       .  S
Zr1243     O2686   2.459   1_455  S
Zr1243     O1249   2.451       .  S
Zr1243     O2691   2.384   1_455  S
Zr1243     O1252   2.383       .  S
Zr1243     O2693   2.428   1_455  S
Zr1243     O1254   2.420       .  S
O1244      H1300   0.991       .  S
O1244      H1308   0.991       .  S
O1245      C1265   1.293   1_455  A
O1246     Zr2683   2.462       .  S
O1246      C1267   1.288       .  A
O1247     Zr1257   2.451       .  S
O1247      C1266   1.288       .  A
O1248     Zr1256   2.463       .  S
O1248      C1267   1.291       .  A
O1249      C1266   1.286       .  A
O1250     Zr1258   2.437       .  S
O1250      C2705   1.279       .  A
O1251     Zr2683   2.384       .  S
O1251     Zr1256   2.412       .  S
O1251     Zr1258   2.391       .  S
O1252     Zr1257   2.398       .  S
O1252     Zr2698   2.379   1_455  S
O1252      H1287   0.966       .  S
O1253     Zr2683   2.425       .  S
O1253     Zr1256   2.402       .  S
O1253     Zr1273   2.376       .  S
O1253      H1290   0.963       .  S
O1254     Zr1257   2.399       .  S
O1254     Zr2713   2.411   1_455  S
Zr1255     O1280   2.436       .  S
Zr1255     O1274   2.475       .  S
Zr1255     O1282   2.449       .  S
Zr1255     O1270   2.455       .  S
Zr1255     O1261   2.404       .  S
Zr1255     O1262   2.422       .  S
Zr1255     O1263   2.374       .  S
Zr1255     O1264   2.385       .  S
Zr1256     O1275   2.436       .  S
Zr1256     O1268   2.435       .  S
Zr1256     O1269   2.472       .  S
Zr1256     O1262   2.406       .  S
Zr1256     O1263   2.394       .  S
Zr1257     O1259   2.436       .  S
Zr1257     O1281   2.437       .  S
Zr1257     O2723   2.462   1_455  S
Zr1257     O2701   2.382   1_455  S
Zr1257     O2704   2.398   1_455  S
Zr1258     O1284   2.435       .  S
Zr1258     O1285   2.436       .  S
Zr1258     O1260   2.436       .  S
Zr1258     O2692   2.381       .  S
Zr1258     O1261   2.390       .  S
Zr1258     O1262   2.412       .  S
O1259      H1296   0.990       .  S
O1260      H1291   0.990       .  S
O1260      H1305   0.990       .  S
O1261     Zr2697   2.382       .  S
O1262      H1288   0.964       .  S
O1263     Zr1273   2.388       .  S
O1264     Zr2697   2.395       .  S
O1264     Zr1273   2.384       .  S
O1264      H1289   0.966       .  S
C1265      O2690   1.278       .  A
O1268      H1304   0.990       .  S
O1269      C1271   1.292       .  A
O1270      C1271   1.288       .  A
O1272     Zr2713   2.439   1_455  S
O1272      H1301   0.990       .  S
Zr1273     O2712   2.439       .  S
Zr1273     O1276   2.439       .  S
Zr1273     O2717   2.442       .  S
Zr1273     O1278   2.418       .  S
Zr1273     O2694   2.406       .  S
O1274      C1279   1.289       .  A
O1275      H1292   0.990       .  S
O1275      H1307   0.990       .  S
O1276      H1293   0.990       .  S
O1277     Zr2713   2.442   1_455  S
O1277      H1297   0.990       .  S
O1277      H1306   0.990       .  S
O1278      C1279   1.275       .  A
O1280      H1299   0.990       .  S
O1280      H1303   0.991       .  S
O1281      H1295   0.990       .  S
O1281      H1302   0.990       .  S
O1282      C1286   1.284       .  A
O1283     Zr2697   2.463       .  S
O1283      C1286   1.291       .  A
O1284      H1294   0.990       .  S
O1285      H1298   0.990       .  S
Zr1309     O1310   2.451       .  S
Zr1309     O1311   2.425       .  S
Zr1309     O1312   2.387       .  S
Zr1309     O1315   2.388       .  S
Zr1309     O1317   2.380       .  S
Zr1309     O1319   2.418       .  S
O1310      H1366   0.990       .  S
O1310      H1374   0.989       .  S
O1311      C1331   1.280   1_556  A
O1312      C1333   1.274       .  A
O1313     Zr1323   2.490       .  S
O1313      C1332   1.290       .  A
O1314     Zr1322   2.460       .  S
O1314      C1333   1.287       .  A
O1316     Zr1324   2.399       .  S
O1317     Zr1322   2.414       .  S
O1318     Zr1323   2.376       .  S
O1318     Zr1324   2.380       .  S
O1318      H1353   0.965       .  S
O1319     Zr1322   2.427       .  S
O1319     Zr1339   2.382       .  S
O1319      H1356   0.964       .  S
O1320     Zr1323   2.388       .  S
Zr1321     O1346   2.439       .  S
Zr1321     O1340   2.411       .  S
Zr1321     O1348   2.366       .  S
Zr1321     O1336   2.353       .  S
Zr1321     O1327   2.380       .  S
Zr1321     O1328   2.385       .  S
Zr1321     O1330   2.382       .  S
Zr1321     O1329   2.254       .  S
Zr1322     O1341   2.440       .  S
Zr1322     O1334   2.435       .  S
Zr1322     O1335   2.525       .  S
Zr1323     O1325   2.436       .  S
Zr1323     O1347   2.441       .  S
Zr1323     O1349   2.454       .  S
Zr1323     O1327   2.391       .  S
Zr1323     O1330   2.401       .  S
Zr1324     O1350   2.435       .  S
Zr1324     O1351   2.435       .  S
Zr1324     O1326   2.432       .  S
Zr1324     O1327   2.385       .  S
Zr1324     O1328   2.395       .  S
O1325      H1362   0.990       .  S
O1326      H1357   0.990       .  S
O1328      H1354   0.964       .  S
O1330      H1355   0.965       .  S
O1334      H1370   0.990       .  S
O1336      C1337   1.268       .  A
O1338     Zr1339   2.436       .  S
O1338      H1367   0.990       .  S
Zr1339     O1342   2.438       .  S
O1340      C1345   1.282       .  A
O1341      H1358   0.990       .  S
O1341      H1373   0.990       .  S
O1342      H1359   0.990       .  S
O1343      H1363   0.990       .  S
O1343      H1372   0.989       .  S
O1344      C1345   1.280       .  A
O1346      H1365   0.990       .  S
O1346      H1369   0.990       .  S
O1347      H1361   0.989       .  S
O1347      H1368   0.989       .  S
O1348      C1352   1.273       .  A
O1349      C1352   1.286       .  A
O1350      H1360   0.990       .  S
O1351      H1364   0.989       .  S
Zr1375     O1376   2.450       .  S
Zr1375     O1377   2.504       .  S
Zr1375     O1378   2.449       .  S
Zr1375     O1381   2.426       .  S
Zr1375     O1383   2.379       .  S
Zr1375     O1385   2.409       .  S
O1376      H1432   0.991       .  S
O1376      H1440   0.989       .  S
O1377      C1397   1.302       .  A
O1378      C1399   1.288       .  A
O1379     Zr1389   2.463       .  S
O1379      C1398   1.290       .  A
O1380     Zr1388   2.457       .  S
O1380      C1399   1.288       .  A
O1382     Zr1390   2.453       .  S
O1383     Zr1388   2.406       .  S
O1384     Zr1389   2.396       .  S
O1384     Zr1390   2.374       .  S
O1384      H1419   0.966       .  S
O1385     Zr1388   2.395       .  S
O1385      H1422   0.963       .  S
O1386     Zr1389   2.388       .  S
O1386     Zr1405   2.399   1_565  S
Zr1387     O1412   2.422       .  S
Zr1387     O1406   2.492       .  S
Zr1387     O1414   2.453       .  S
Zr1387     O1402   2.448       .  S
Zr1387     O1393   2.411       .  S
Zr1387     O1394   2.421       .  S
Zr1387     O1395   2.375       .  S
Zr1387     O1396   2.384       .  S
Zr1388     O1407   2.437       .  S
Zr1388     O1400   2.436       .  S
Zr1388     O1401   2.458       .  S
Zr1389     O1391   2.435       .  S
Zr1389     O1413   2.437       .  S
Zr1389     O1415   2.461       .  S
Zr1389     O1393   2.391       .  S
Zr1389     O1396   2.403       .  S
Zr1390     O1416   2.434       .  S
Zr1390     O1417   2.436       .  S
Zr1390     O1392   2.436       .  S
Zr1390     O1393   2.401       .  S
Zr1390     O1394   2.414       .  S
O1391      H1428   0.990       .  S
O1392      H1423   0.990       .  S
O1394      H1420   0.965       .  S
O1395     Zr1405   2.386   1_565  S
O1396     Zr1405   2.388   1_565  S
O1396      H1421   0.966       .  S
O1400      H1436   0.990       .  S
O1402      C1403   1.285       .  A
O1404      H1433   0.990       .  S
Zr1405     O1409   2.436   1_545  S
Zr1405     O1410   2.415   1_545  S
O1406      C1411   1.295       .  A
O1407      H1424   0.990       .  S
O1407      H1439   0.990       .  S
O1408      H1425   0.990       .  S
O1409      H1429   0.989       .  S
O1409      H1438   0.990       .  S
O1410      C1411   1.275       .  A
O1412      H1431   0.991       .  S
O1412      H1435   0.991       .  S
O1413      H1427   0.990       .  S
O1413      H1434   0.990       .  S
O1414      C1418   1.282       .  A
O1415      C1418   1.290       .  A
O1416      H1426   0.990       .  S
O1417      H1430   0.990       .  S
C1441      C1442   1.521       .  S
C1441      C1447   1.516       .  S
C1441      C1445   1.550       .  S
C1441      C1561   1.498       .  S
C1442      H1449   1.082       .  S
C1442      C1443   1.375       .  D
C1443      C1444   1.571       .  S
C1443      C1496   1.494       .  S
C1444      C1448   1.562       .  S
C1444      C1446   1.537       .  S
C1444      H1450   1.106       .  S
C1445      H1451   1.084       .  S
C1445      C1446   1.353       .  D
C1446      C1763   1.484       .  S
C1447      H1452   1.088       .  S
C1447      C1448   1.354       .  D
C1448      C1646   1.482       .  S
C1453      C1454   1.522       .  S
C1453      C1459   1.518       .  S
C1453      C1457   1.551       .  S
C1453      C1693   1.499       .  S
C1454      H1461   1.082       .  S
C1454      C1455   1.374       .  D
C1455      C1456   1.575       .  S
C1455      C1532   1.496       .  S
C1456      C1460   1.565       .  S
C1456      C1458   1.543       .  S
C1456      H1462   1.106       .  S
C1457      H1463   1.082       .  S
C1457      C1458   1.356       .  D
C1458      C1631   1.497       .  S
C1459      H1464   1.088       .  S
C1459      C1460   1.354       .  D
C1460      C1778   1.486       .  S
C1465      C1466   1.532       .  S
C1465      C1471   1.524       .  S
C1465      C1829   1.537       .  S
C1465      C1559   1.495       .  S
C1466      H1833   1.086       .  S
C1466      C1467   1.365       .  D
C1467      C1468   1.543       .  S
C1467      C2052   1.467       .  S
C1468      C1472   1.559       .  S
C1468      C1830   1.552       .  S
C1468      H1474   1.106       .  S
C1469      C1825   1.537   1_554  S
C1469      H1475   1.081       .  S
C1469      C1470   1.367       .  D
C1470      C1828   1.550   1_554  S
C1470      C1503   1.493       .  S
C1471      H1476   1.088       .  S
C1471      C1472   1.352       .  D
C1472      C1639   1.492       .  S
H1473      C1826   1.086       .  S
C1477      C1478   1.535       .  S
C1477      C1483   1.524       .  S
C1477      C1841   1.535       .  S
C1477      C1691   1.491       .  S
C1478      H1845   1.086       .  S
C1478      C1479   1.367       .  D
C1479      C1480   1.544       .  S
C1479      C1920   1.471       .  S
C1480      C1484   1.565       .  S
C1480      C1842   1.557       .  S
C1480      H1486   1.106       .  S
C1481      C1837   1.534   1_554  S
C1481      H1487   1.081       .  S
C1481      C1482   1.365       .  D
C1482      C1840   1.556   1_554  S
C1482      C1515   1.498       .  S
C1483      H1488   1.088       .  S
C1483      C1484   1.351       .  D
C1484      C1771   1.498       .  S
H1485      C1838   1.086       .  S
C1489      C1490   1.510       .  S
C1489      C2215   1.524   1_545  S
C1489      C1580   1.488       .  S
C1490      H1497   1.089       .  S
C1490      C1491   1.350       .  D
C1491      C1492   1.566       .  S
C1491      C1627   1.474       .  S
C1492      C2216   1.570   1_545  S
C1493      H1499   1.073       .  S
C1493      C2214   1.351       .  D
C1494      C2213   1.352       .  D
C1494      C2478   1.478       .  S
C1495      C2209   1.523       .  S
C1495      H1500   1.082       .  S
C1495      C1496   1.373       .  D
C1496      C2212   1.569       .  S
C1501      C1505   1.531       .  S
C1502      H1869   1.081       .  S
C1502      C1503   1.369       .  D
C1504      C1508   1.565       .  S
C1504      C1506   1.547       .  S
C1504      H1510   1.105       .  S
C1505      H1511   1.083       .  S
C1505      C1506   1.364       .  D
C1506      C1697   1.469       .  S
C1507      H1512   1.088       .  S
C1508      C1625   1.500       .  S
H1509      C1862   1.082       .  S
C1513      C1514   1.539       .  S
C1513      C1519   1.525       .  S
C1513      C1517   1.532       .  S
C1513      C1705   1.500       .  S
C1514      H1881   1.082       .  S
C1514      C2235   1.369   1_545  D
C1515      C1516   1.554       .  S
C1515      C2234   1.368       .  D
C1516      C2240   1.578       .  S
C1516      C2238   1.553       .  S
C1516      H1522   1.106       .  S
C1517      H1523   1.083       .  S
C1517      C1518   1.365       .  D
C1518      C2236   1.552   1_545  S
C1518      C1565   1.475       .  S
C1519      H1524   1.088       .  S
C1519      C1520   1.352       .  D
C1520      C2236   1.579   1_545  S
C1520      C1757   1.514       .  S
H1521      C1874   1.082       .  S
C1525      C1526   1.511       .  S
C1525      C1531   1.520       .  S
C1525      C1529   1.542       .  S
C1525      C1712   1.482       .  S
C1526      H1533   1.089       .  S
C1526      C1527   1.349       .  D
C1527      C1528   1.568       .  S
C1527      C1759   1.474       .  S
C1528      C1532   1.573       .  S
C1528      C1530   1.534       .  S
C1528      H1534   1.107       .  S
C1529      H1535   1.073       .  S
C1529      C1530   1.352       .  D
C1530      C1626   1.481       .  S
C1531      H1536   1.082       .  S
C1531      C1532   1.370       .  D
Zr1537     O1538   2.450       .  S
Zr1537     O1539   2.432       .  S
Zr1537     O1540   2.373       .  S
Zr1537     O1543   2.389       .  S
Zr1537     O1545   2.380       .  S
Zr1537     O1906   2.373       .  S
Zr1537     O1547   2.418       .  S
Zr1537     O1908   2.401       .  S
O1538      H1594   0.990       .  S
O1538      H1602   0.989       .  S
O1539      C1559   1.282       .  A
O1540      C1561   1.273       .  A
O1541     Zr1551   2.477       .  S
O1541      C1560   1.288       .  A
O1542      C1561   1.290       .  A
O1543      C1920   1.268       .  A
O1544     Zr1552   2.404   1_655  S
O1544      C1919   1.276       .  A
O1545     Zr1912   2.383       .  S
O1546     Zr1897   2.369   1_554  S
O1546     Zr1551   2.377       .  S
O1546     Zr1552   2.377   1_655  S
O1546      H1581   0.965       .  S
O1547     Zr2647   2.378       .  S
O1547      H2304   0.964       .  S
O1548     Zr1897   2.399   1_554  S
O1548     Zr1551   2.392       .  S
O1548     Zr2287   2.396   1_554  S
Zr1549     O2294   2.440   1_545  S
Zr1549     O1568   2.420       .  S
Zr1549     O1564   2.335       .  S
Zr1549     O2276   2.387   1_545  S
Zr1550     O2289   2.439       .  S
Zr1550     O1562   2.436       .  S
Zr1550     O1563   2.548       .  S
Zr1550     O1916   2.382       .  S
Zr1551     O2273   2.436       .  S
Zr1551     O1575   2.443       .  S
Zr1551     O1577   2.449       .  S
Zr1551     O1555   2.390       .  S
Zr1551     O2278   2.399       .  S
Zr1552     O1578   2.436   1_455  S
Zr1552     O1905   2.385   1_454  S
Zr1552     O1555   2.383   1_455  S
O1553     Zr2271   2.435   1_545  S
O1553      H1590   0.990       .  S
O1554      H1585   0.990       .  S
O1554      H1959   0.990   1_554  S
O1556     Zr2269   2.390       .  S
O1556     Zr1910   2.383   1_554  S
O1556      H1582   0.964       .  S
O1557     Zr1567   2.364       .  S
O1558     Zr2271   2.394   1_545  S
O1558     Zr1567   2.379   1_554  S
O1558      H1583   0.965       .  S
C1559      O1904   1.276       .  A
C1560      C1839   1.466   1_554  S
C1560      O1903   1.269   1_554  A
O1562      H1598   0.990       .  S
O1563      C2645   1.308       .  A
O1564      C1565   1.265       .  A
C1565      O2643   1.308   1_544  A
O1566     Zr1927   2.434       .  S
O1566      H1595   0.990       .  S
Zr1567     O1926   2.435       .  S
Zr1567     O1930   2.438       .  S
Zr1567     O1571   2.438   1_556  S
Zr1567     O1572   2.415   1_556  S
Zr1567     O2627   2.378   1_545  S
Zr1567     O2268   2.397   1_546  S
O1569     Zr2270   2.439   1_545  S
O1569      H1586   0.990       .  S
O1569      H1601   0.990       .  S
O1570     Zr1927   2.438       .  S
O1570      H1587   0.990       .  S
O1571      H1591   0.990       .  S
O1571      H1600   0.990       .  S
O1572      C1573   1.280       .  A
O1574     Zr2269   2.440       .  S
O1574      H1593   0.990       .  S
O1574      H1597   0.989       .  S
O1575      H1589   0.989       .  S
O1575      H1596   0.989       .  S
O1576      C1580   1.273       .  A
O1577      C2300   1.285       .  A
O1578      H1588   0.990       .  S
O1579      H1592   0.988       .  S
C1580      O2297   1.287   1_545  A
H1584      O2267   0.964       .  S
H1599      O1914   0.990       .  S
Zr1603     O1604   2.447       .  S
Zr1603     O1605   2.478       .  S
Zr1603     O1609   2.447       .  S
Zr1603     O1612   2.389       .  S
Zr1603     O1614   2.416       .  S
O1604      H1660   0.991       .  S
O1604      H1668   0.991       .  S
O1605      C1625   1.291       .  A
O1606      C1627   1.289       .  A
O1607     Zr1617   2.452       .  S
O1607      C1626   1.288       .  A
O1608     Zr1616   2.459       .  S
O1608      C1627   1.290       .  A
O1609      C1626   1.285       .  A
O1610     Zr1618   2.438       .  S
O1611     Zr1616   2.408       .  S
O1611     Zr1618   2.388       .  S
O1612     Zr1617   2.406       .  S
O1612      H1647   0.966       .  S
O1613     Zr1616   2.406       .  S
O1613     Zr1633   2.371       .  S
O1613      H1650   0.962       .  S
O1614     Zr1617   2.397       .  S
Zr1615     O1640   2.436       .  S
Zr1615     O1634   2.486       .  S
Zr1615     O1642   2.450       .  S
Zr1615     O1630   2.466       .  S
Zr1615     O1621   2.413       .  S
Zr1615     O1622   2.424       .  S
Zr1615     O1623   2.375       .  S
Zr1615     O1624   2.388       .  S
Zr1616     O1635   2.436       .  S
Zr1616     O1628   2.436       .  S
Zr1616     O1629   2.474       .  S
Zr1616     O1622   2.402       .  S
Zr1616     O1623   2.398       .  S
Zr1617     O1619   2.437       .  S
Zr1617     O1641   2.439       .  S
Zr1618     O1644   2.436       .  S
Zr1618     O1645   2.436       .  S
Zr1618     O1620   2.437       .  S
Zr1618     O1621   2.395       .  S
Zr1618     O1622   2.418       .  S
O1619      H1656   0.990       .  S
O1620      H1651   0.990       .  S
O1620      H1665   0.990       .  S
O1622      H1648   0.965       .  S
O1623     Zr1633   2.390       .  S
O1624     Zr1633   2.383       .  S
O1624      H1649   0.966       .  S
O1628      H1664   0.990       .  S
O1629      C1631   1.292       .  A
O1630      C1631   1.290       .  A
O1632      H1661   0.990       .  S
Zr1633     O1636   2.438       .  S
Zr1633     O1638   2.417       .  S
O1634      C1639   1.291       .  A
O1635      H1652   0.990       .  S
O1635      H1667   0.990       .  S
O1636      H1653   0.991       .  S
O1637      H1657   0.990       .  S
O1637      H1666   0.990       .  S
O1638      C1639   1.275       .  A
O1640      H1659   0.990       .  S
O1640      H1663   0.991       .  S
O1641      H1655   0.990       .  S
O1641      H1662   0.990       .  S
O1642      C1646   1.285       .  A
O1643      C1646   1.292       .  A
O1644      H1654   0.990       .  S
O1645      H1658   0.990       .  S
Zr1669     O1670   2.451       .  S
Zr1669     O1671   2.424       .  S
Zr1669     O1672   2.383       .  S
Zr1669     O1675   2.387       .  S
Zr1669     O1677   2.380       .  S
Zr1669     O2038   2.375       .  S
Zr1669     O1679   2.413       .  S
Zr1669     O2040   2.400       .  S
O1670      H1726   0.990       .  S
O1670      H1734   0.989       .  S
O1671      C1691   1.281       .  A
O1672      C1693   1.273       .  A
O1673     Zr1683   2.486       .  S
O1673      C1692   1.289       .  A
O1674     Zr1682   2.466       .  S
O1674      C1693   1.289       .  A
O1675      C2052   1.269       .  A
O1676     Zr1684   2.401       .  S
O1676      C2051   1.277       .  A
O1677     Zr1682   2.413       .  S
O1677     Zr2044   2.387       .  S
O1678     Zr2029   2.373   1_554  S
O1678     Zr1683   2.375       .  S
O1678     Zr1684   2.378       .  S
O1678      H1713   0.965       .  S
O1679     Zr1682   2.420       .  S
O1679     Zr1699   2.384       .  S
O1679      H1716   0.964       .  S
O1680     Zr2029   2.398   1_554  S
O1680     Zr1683   2.388       .  S
O1680     Zr2059   2.393   1_554  S
Zr1681     O1706   2.440       .  S
Zr1681     O1700   2.415       .  S
Zr1681     O1708   2.364       .  S
Zr1681     O1696   2.345       .  S
Zr1681     O1687   2.381       .  S
Zr1681     O1688   2.385       .  S
Zr1681     O1690   2.380       .  S
Zr1681     O1689   2.254       .  S
Zr1682     O1701   2.439       .  S
Zr1682     O1694   2.436       .  S
Zr1682     O1695   2.519       .  S
Zr1682     O2048   2.385       .  S
Zr1682     O2049   2.278       .  S
Zr1683     O1685   2.435       .  S
Zr1683     O1707   2.442       .  S
Zr1683     O1709   2.451       .  S
Zr1683     O1687   2.392       .  S
Zr1683     O1690   2.399       .  S
Zr1684     O1710   2.435       .  S
Zr1684     O1711   2.437       .  S
Zr1684     O1686   2.432       .  S
Zr1684     O2037   2.384   1_554  S
Zr1684     O1687   2.382       .  S
Zr1684     O1688   2.399       .  S
O1685      H1722   0.990       .  S
O1686      H1717   0.990       .  S
O1686      H2091   0.990   1_554  S
O1688     Zr2042   2.381   1_554  S
O1688      H1714   0.964       .  S
O1689     Zr2042   2.274   1_554  S
O1689     Zr2059   2.272   1_554  S
O1690     Zr2059   2.374   1_554  S
O1690      H1715   0.965       .  S
C1691      O2036   1.277       .  A
C1692      C1827   1.469   1_554  S
C1692      O2035   1.268   1_554  A
O1694      H1730   0.990       .  S
O1695      C2057   1.301       .  A
O1696      C1697   1.267       .  A
C1697      O2055   1.304   1_554  A
O1698     Zr1699   2.434       .  S
O1698      H1727   0.990       .  S
Zr1699     O1702   2.436       .  S
Zr1699     O2063   2.438       .  S
Zr1699     O2064   2.412       .  S
Zr1699     O2040   2.389       .  S
Zr1699     O2050   2.375       .  S
Zr1699     O2049   2.275       .  S
O1700      C1705   1.283       .  A
O1701      H1718   0.990       .  S
O1701      H1733   0.989       .  S
O1702      H1719   0.990       .  S
O1703     Zr2059   2.440   1_554  S
O1703      H1723   0.990       .  S
O1703      H1732   0.989       .  S
O1704     Zr2059   2.413   1_554  S
O1704      C1705   1.279       .  A
O1706      H1725   0.990       .  S
O1706      H1729   0.990       .  S
O1707      H1721   0.990       .  S
O1707      H1728   0.989       .  S
O1708      C1712   1.272       .  A
O1709      C1712   1.286       .  A
O1710      H1720   0.990       .  S
O1711      H1724   0.989       .  S
H1731      O2046   0.990       .  S
Zr1735     O1736   2.451       .  S
Zr1735     O1737   2.504       .  S
Zr1735     O1738   2.450       .  S
Zr1735     O1741   2.425       .  S
Zr1735     O1743   2.381       .  S
Zr1735     O2464   2.385   1_545  S
Zr1735     O1745   2.409       .  S
Zr1735     O2466   2.413   1_545  S
O1736      H1792   0.990       .  S
O1736      H1800   0.990       .  S
O1737      C1757   1.302       .  A
O1738      C1759   1.288       .  A
O1739     Zr1749   2.464       .  S
O1739      C1758   1.290       .  A
O1740     Zr1748   2.454       .  S
O1740      C1759   1.288       .  A
O1741      C2478   1.283       .  A
O1742     Zr1750   2.453       .  S
O1742      C2477   1.283       .  A
O1743     Zr1748   2.409       .  S
O1743     Zr2470   2.388   1_545  S
O1744     Zr2455   2.385       .  S
O1744     Zr1749   2.398       .  S
O1744     Zr1750   2.370       .  S
O1744      H1779   0.966       .  S
O1745     Zr1748   2.401       .  S
O1745     Zr2485   2.376       .  S
O1745      H1782   0.964       .  S
O1746     Zr2455   2.411       .  S
O1746     Zr1749   2.385       .  S
O1746     Zr1765   2.394       .  S
Zr1747     O1772   2.424       .  S
Zr1747     O1766   2.495       .  S
Zr1747     O1774   2.448       .  S
Zr1747     O1762   2.450       .  S
Zr1747     O1753   2.410       .  S
Zr1747     O1754   2.417       .  S
Zr1747     O1755   2.372       .  S
Zr1747     O1756   2.386       .  S
Zr1748     O1767   2.436       .  S
Zr1748     O1760   2.435       .  S
Zr1748     O1761   2.463   1_545  S
Zr1748     O2474   2.400   1_545  S
Zr1748     O2475   2.397   1_545  S
Zr1749     O1751   2.435       .  S
Zr1749     O1773   2.437       .  S
Zr1749     O1775   2.467       .  S
Zr1749     O1753   2.390       .  S
Zr1749     O1756   2.403       .  S
Zr1750     O1776   2.436       .  S
Zr1750     O1777   2.436       .  S
Zr1750     O1752   2.434       .  S
Zr1750     O2463   2.387       .  S
Zr1750     O1753   2.399       .  S
Zr1750     O1754   2.415       .  S
O1751      H1788   0.990       .  S
O1752      H1783   0.990       .  S
O1752      H2517   0.990       .  S
O1754     Zr2468   2.400       .  S
O1754      H1780   0.965       .  S
O1755     Zr2468   2.398       .  S
O1755     Zr1765   2.387       .  S
O1756     Zr1765   2.387       .  S
O1756      H1781   0.966       .  S
C1757      O2462   1.282   1_545  A
C1758      C2214   1.475       .  S
C1758      O2461   1.283       .  A
O1760      H1796   0.990       .  S
O1761      C2483   1.289       .  A
O1762      C1763   1.285       .  A
C1763      O2481   1.288       .  A
O1764     Zr2485   2.437       .  S
O1764      H1793   0.990       .  S
Zr1765     O2484   2.437       .  S
Zr1765     O2488   2.436       .  S
Zr1765     O1769   2.441       .  S
Zr1765     O1770   2.420       .  S
Zr1765     O2465   2.382       .  S
O1766      C1771   1.297       .  A
O1767      H1784   0.990       .  S
O1767      H1799   0.990       .  S
O1768     Zr2485   2.437       .  S
O1768      H1785   0.990       .  S
O1769      H1789   0.990       .  S
O1769      H1798   0.990       .  S
O1770      C1771   1.276       .  A
O1772      H1791   0.991       .  S
O1772      H1795   0.991       .  S
O1773      H1787   0.990       .  S
O1773      H1794   0.990       .  S
O1774      C1778   1.280       .  A
O1775      C1778   1.291       .  A
O1776      H1786   0.990       .  S
O1777      H1790   0.990       .  S
H1797      O2472   0.990       .  S
C1801      C1802   1.520       .  S
C1801      C1807   1.516       .  S
C1801      C1805   1.555       .  S
C1801      C1921   1.501       .  S
C1802      H1809   1.082       .  S
C1802      C1803   1.375       .  D
C1803      C1804   1.573       .  S
C1803      C1856   1.495       .  S
C1804      C1808   1.565       .  S
C1804      C1806   1.537       .  S
C1804      H1810   1.106       .  S
C1805      H1811   1.085       .  S
C1805      C1806   1.355       .  D
C1806      C2123   1.489       .  S
C1807      H1812   1.088       .  S
C1807      C1808   1.354       .  D
C1808      C2006   1.486       .  S
C1813      C1814   1.523       .  S
C1813      C1819   1.516       .  S
C1813      C1817   1.551       .  S
C1813      C2053   1.496       .  S
C1814      H1821   1.082       .  S
C1814      C1815   1.375       .  D
C1815      C1816   1.574       .  S
C1815      C1892   1.498       .  S
C1816      C1820   1.565       .  S
C1816      C1818   1.539       .  S
C1816      H1822   1.106       .  S
C1817      H1823   1.085       .  S
C1817      C1818   1.352       .  D
C1818      C1991   1.487       .  S
C1819      H1824   1.088       .  S
C1819      C1820   1.354       .  D
C1820      C2138   1.485       .  S
C1825      C1826   1.534   1_556  S
C1825      C1831   1.523       .  S
C1825      C1919   1.495   1_556  S
C1826      C1827   1.366   1_554  D
C1827      C1828   1.543       .  S
C1828      C1832   1.557       .  S
C1828      H1834   1.106       .  S
C1829      H1835   1.081       .  S
C1829      C1830   1.368       .  D
C1830      C1863   1.497       .  S
C1831      H1836   1.088       .  S
C1831      C1832   1.353       .  D
C1832      C1999   1.489       .  S
C1837      C1838   1.534   1_556  S
C1837      C1843   1.523       .  S
C1837      C2051   1.491   1_556  S
C1838      C1839   1.367   1_554  D
C1839      C1840   1.539       .  S
C1840      C1844   1.562       .  S
C1840      H1846   1.107       .  S
C1841      H1847   1.081       .  S
C1841      C1842   1.364       .  D
C1842      C1875   1.499       .  S
C1843      H1848   1.088       .  S
C1843      C1844   1.351       .  D
C1844      C2131   1.492       .  S
C1849      C1850   1.513       .  S
C1849      C2575   1.521   1_545  S
C1849      C1940   1.486       .  S
C1850      H1857   1.089       .  S
C1850      C1851   1.350       .  D
C1851      C1852   1.567       .  S
C1851      C1987   1.477       .  S
C1852      C2576   1.571   1_545  S
C1853      H1859   1.071       .  S
C1853      C2574   1.351       .  D
C1854      C2573   1.351       .  D
C1854      C2838   1.478   1_545  S
C1855      C2569   1.523       .  S
C1855      H1860   1.082       .  S
C1855      C1856   1.373       .  D
C1856      C2572   1.570       .  S
C1861      C1865   1.530       .  S
C1862      C1863   1.370       .  D
C1864      C1868   1.566       .  S
C1864      C1866   1.547       .  S
C1864      H1870   1.106       .  S
C1865      H1871   1.084       .  S
C1865      C1866   1.363       .  D
C1866      C2057   1.469       .  S
C1867      H1872   1.088       .  S
C1868      C1985   1.498       .  S
C1873      C1874   1.538       .  S
C1873      C1879   1.524       .  S
C1873      C1877   1.531       .  S
C1873      C2065   1.499       .  S
C1874      C2595   1.369   1_545  D
C1875      C1876   1.557       .  S
C1875      C2594   1.367       .  D
C1876      C2600   1.581       .  S
C1876      C2598   1.553       .  S
C1876      H1882   1.106       .  S
C1877      H1883   1.084       .  S
C1877      C1878   1.364       .  D
C1878      C2596   1.554   1_545  S
C1878      C1925   1.478       .  S
C1879      H1884   1.088       .  S
C1879      C1880   1.352       .  D
C1880      C2596   1.579   1_545  S
C1880      C2117   1.513       .  S
C1885      C1886   1.512       .  S
C1885      C1891   1.521       .  S
C1885      C1889   1.541       .  S
C1885      C2072   1.486       .  S
C1886      H1893   1.089       .  S
C1886      C1887   1.349       .  D
C1887      C1888   1.566       .  S
C1887      C2119   1.474       .  S
C1888      C1892   1.574       .  S
C1888      C1890   1.533       .  S
C1888      H1894   1.107       .  S
C1889      H1895   1.074       .  S
C1889      C1890   1.352       .  D
C1890      C1986   1.479       .  S
C1891      H1896   1.082       .  S
C1891      C1892   1.372       .  D
Zr1897     O1898   2.450       .  S
Zr1897     O1899   2.428       .  S
Zr1897     O1900   2.364       .  S
Zr1897     O1903   2.390       .  S
Zr1897     O1905   2.384       .  S
Zr1897     O1907   2.418       .  S
O1898      H1954   0.991       .  S
O1898      H1962   0.989       .  S
O1899      C1919   1.281   1_556  A
O1900      C1921   1.271       .  A
O1901     Zr1911   2.487       .  S
O1901      C1920   1.290       .  A
O1902      C1921   1.293   1_455  A
O1904     Zr1912   2.401       .  S
O1906     Zr1911   2.381       .  S
O1906     Zr1912   2.380       .  S
O1906      H1941   0.965       .  S
O1907     Zr2287   2.376       .  S
O1907      H2664   0.963       .  S
O1908     Zr1911   2.388       .  S
O1908     Zr2647   2.395       .  S
Zr1909     O2654   2.441   1_545  S
Zr1909     O1928   2.412       .  S
Zr1909     O1924   2.345       .  S
Zr1909     O2636   2.385   1_545  S
Zr1910     O2649   2.438       .  S
Zr1910     O1922   2.437       .  S
Zr1910     O1923   2.549       .  S
Zr1911     O2633   2.435       .  S
Zr1911     O1935   2.437       .  S
Zr1911     O1937   2.456       .  S
Zr1911     O1915   2.390       .  S
Zr1911     O2638   2.397       .  S
Zr1912     O1938   2.435       .  S
Zr1912     O1915   2.384       .  S
O1913     Zr2631   2.435   1_545  S
O1913      H1950   0.990       .  S
O1914      H1945   0.990       .  S
O1916     Zr2629   2.387       .  S
O1916      H1942   0.964       .  S
O1917     Zr1927   2.270       .  S
O1918     Zr2631   2.397   1_545  S
O1918     Zr1927   2.379       .  S
O1918      H1943   0.965       .  S
O1922      H1958   0.990       .  S
O1923      C2285   1.309   1_556  A
O1924      C1925   1.267       .  A
C1925      O2283   1.308   1_545  A
O1926      H1955   0.990       .  S
Zr1927     O1931   2.439       .  S
Zr1927     O1932   2.406       .  S
Zr1927     O2267   2.380   1_545  S
Zr1927     O2628   2.392   1_545  S
O1929     Zr2630   2.437   1_545  S
O1929      H1946   0.990       .  S
O1929      H1961   0.990       .  S
O1930      H1947   0.990       .  S
O1931      H1951   0.990       .  S
O1931      H1960   0.989       .  S
O1932      C1933   1.278       .  A
O1934     Zr2629   2.441       .  S
O1934      H1953   0.990       .  S
O1934      H1957   0.989       .  S
O1935      H1949   0.989       .  S
O1935      H1956   0.989       .  S
O1936      C1940   1.274       .  A
O1937      C2660   1.286       .  A
O1938      H1948   0.990       .  S
O1939      H1952   0.989       .  S
C1940      O2657   1.286   1_545  A
H1944      O2627   0.963       .  S
Zr1963     O1964   2.445       .  S
Zr1963     O1965   2.484       .  S
Zr1963     O1969   2.453       .  S
Zr1963     O1972   2.384       .  S
Zr1963     O1974   2.413       .  S
O1964      H2020   0.991       .  S
O1964      H2028   0.990       .  S
O1965      C1985   1.293       .  A
O1966      C1987   1.288       .  A
O1967     Zr1977   2.441       .  S
O1967      C1986   1.286       .  A
O1968     Zr1976   2.465       .  S
O1968      C1987   1.291       .  A
O1969      C1986   1.286       .  A
O1970     Zr1978   2.434       .  S
O1971     Zr1976   2.410       .  S
O1971     Zr1978   2.390       .  S
O1972     Zr1977   2.403       .  S
O1972      H2007   0.966       .  S
O1973     Zr1976   2.404       .  S
O1973     Zr1993   2.373       .  S
O1973      H2010   0.963       .  S
O1974     Zr1977   2.399       .  S
Zr1975     O2000   2.437       .  S
Zr1975     O1994   2.475       .  S
Zr1975     O2002   2.450       .  S
Zr1975     O1990   2.449       .  S
Zr1975     O1981   2.404       .  S
Zr1975     O1982   2.423       .  S
Zr1975     O1983   2.376       .  S
Zr1975     O1984   2.384       .  S
Zr1976     O1995   2.437       .  S
Zr1976     O1988   2.436       .  S
Zr1976     O1989   2.470       .  S
Zr1976     O1982   2.405       .  S
Zr1976     O1983   2.396       .  S
Zr1977     O1979   2.438       .  S
Zr1977     O2001   2.439       .  S
Zr1978     O2004   2.436       .  S
Zr1978     O2005   2.436       .  S
Zr1978     O1980   2.437       .  S
Zr1978     O1981   2.393       .  S
Zr1978     O1982   2.413       .  S
O1979      H2016   0.990       .  S
O1980      H2011   0.990       .  S
O1980      H2025   0.990       .  S
O1982      H2008   0.965       .  S
O1983     Zr1993   2.387       .  S
O1984     Zr1993   2.384       .  S
O1984      H2009   0.966       .  S
O1988      H2024   0.990       .  S
O1989      C1991   1.291       .  A
O1990      C1991   1.286       .  A
O1992      H2021   0.990       .  S
Zr1993     O1996   2.437       .  S
Zr1993     O1998   2.419       .  S
O1994      C1999   1.289       .  A
O1995      H2012   0.990       .  S
O1995      H2027   0.990       .  S
O1996      H2013   0.990       .  S
O1997      H2017   0.990       .  S
O1997      H2026   0.990       .  S
O1998      C1999   1.275       .  A
O2000      H2019   0.991       .  S
O2000      H2023   0.991       .  S
O2001      H2015   0.990       .  S
O2001      H2022   0.990       .  S
O2002      C2006   1.285       .  A
O2003      C2006   1.293       .  A
O2004      H2014   0.990       .  S
O2005      H2018   0.990       .  S
Zr2029     O2030   2.448       .  S
Zr2029     O2031   2.423       .  S
Zr2029     O2032   2.371       .  S
Zr2029     O2035   2.387       .  S
Zr2029     O2037   2.379       .  S
Zr2029     O2039   2.415       .  S
O2030      H2086   0.990       .  S
O2030      H2094   0.989       .  S
O2031      C2051   1.280   1_556  A
O2032      C2053   1.273       .  A
O2033     Zr2043   2.485       .  S
O2033      C2052   1.290       .  A
O2034     Zr2042   2.466       .  S
O2034      C2053   1.289       .  A
O2036     Zr2044   2.402       .  S
O2037     Zr2042   2.414       .  S
O2038     Zr2043   2.371       .  S
O2038     Zr2044   2.376       .  S
O2038      H2073   0.965       .  S
O2039     Zr2042   2.419       .  S
O2039     Zr2059   2.378       .  S
O2039      H2076   0.964       .  S
O2040     Zr2043   2.389       .  S
Zr2041     O2066   2.440       .  S
Zr2041     O2060   2.414       .  S
Zr2041     O2068   2.369       .  S
Zr2041     O2056   2.356       .  S
Zr2041     O2047   2.380       .  S
Zr2041     O2048   2.386       .  S
Zr2041     O2050   2.381       .  S
Zr2041     O2049   2.257       .  S
Zr2042     O2061   2.440       .  S
Zr2042     O2054   2.435       .  S
Zr2042     O2055   2.528       .  S
Zr2043     O2045   2.436       .  S
Zr2043     O2067   2.442       .  S
Zr2043     O2069   2.456       .  S
Zr2043     O2047   2.390       .  S
Zr2043     O2050   2.400       .  S
Zr2044     O2070   2.437       .  S
Zr2044     O2071   2.438       .  S
Zr2044     O2046   2.431       .  S
Zr2044     O2047   2.381       .  S
Zr2044     O2048   2.400       .  S
O2045      H2082   0.990       .  S
O2046      H2077   0.990       .  S
O2048      H2074   0.964       .  S
O2050      H2075   0.965       .  S
O2054      H2090   0.990       .  S
O2056      C2057   1.269       .  A
O2058     Zr2059   2.434       .  S
O2058      H2087   0.990       .  S
Zr2059     O2062   2.437       .  S
O2060      C2065   1.283       .  A
O2061      H2078   0.990       .  S
O2061      H2093   0.990       .  S
O2062      H2079   0.990       .  S
O2063      H2083   0.990       .  S
O2063      H2092   0.989       .  S
O2064      C2065   1.279       .  A
O2066      H2085   0.990       .  S
O2066      H2089   0.990       .  S
O2067      H2081   0.990       .  S
O2067      H2088   0.989       .  S
O2068      C2072   1.274       .  A
O2069      C2072   1.286       .  A
O2070      H2080   0.990       .  S
O2071      H2084   0.989       .  S
Zr2095     O2096   2.447       .  S
Zr2095     O2097   2.501       .  S
Zr2095     O2098   2.450       .  S
Zr2095     O2101   2.428       .  S
Zr2095     O2103   2.381       .  S
Zr2095     O2824   2.383   1_545  S
Zr2095     O2105   2.408       .  S
Zr2095     O2826   2.412   1_545  S
O2096      H2152   0.990       .  S
O2096      H2160   0.990       .  S
O2097      C2117   1.301       .  A
O2098      C2119   1.289       .  A
O2099     Zr2109   2.466       .  S
O2099      C2118   1.291       .  A
O2100     Zr2108   2.453       .  S
O2100      C2119   1.288       .  A
O2101      C2838   1.283   1_545  A
O2102     Zr2110   2.445       .  S
O2102      C2837   1.281       .  A
O2103     Zr2108   2.404       .  S
O2103     Zr2830   2.387   1_545  S
O2104     Zr2815   2.379       .  S
O2104     Zr2109   2.396       .  S
O2104     Zr2110   2.370       .  S
O2104      H2139   0.966       .  S
O2105     Zr2108   2.397       .  S
O2105     Zr2845   2.373       .  S
O2105      H2142   0.963       .  S
O2106     Zr2815   2.415       .  S
O2106     Zr2109   2.391       .  S
O2106     Zr2125   2.402       .  S
Zr2107     O2132   2.423       .  S
Zr2107     O2126   2.494       .  S
Zr2107     O2134   2.451       .  S
Zr2107     O2122   2.449       .  S
Zr2107     O2113   2.406       .  S
Zr2107     O2114   2.419       .  S
Zr2107     O2115   2.373       .  S
Zr2107     O2116   2.385       .  S
Zr2108     O2127   2.437       .  S
Zr2108     O2120   2.436       .  S
Zr2108     O2121   2.458   1_545  S
Zr2108     O2834   2.400   1_545  S
Zr2108     O2835   2.396   1_545  S
Zr2109     O2111   2.438       .  S
Zr2109     O2133   2.437       .  S
Zr2109     O2135   2.463       .  S
Zr2109     O2113   2.391       .  S
Zr2109     O2116   2.401       .  S
Zr2110     O2136   2.437       .  S
Zr2110     O2137   2.435       .  S
Zr2110     O2112   2.433       .  S
Zr2110     O2823   2.386       .  S
Zr2110     O2113   2.395       .  S
Zr2110     O2114   2.415       .  S
O2111      H2148   0.990       .  S
O2112      H2143   0.990       .  S
O2112      H2877   0.990       .  S
O2114     Zr2828   2.401       .  S
O2114      H2140   0.965       .  S
O2115     Zr2828   2.395       .  S
O2115     Zr2125   2.385       .  S
O2116     Zr2125   2.386       .  S
O2116      H2141   0.966       .  S
C2117      O2822   1.283   1_545  A
C2118      C2574   1.478       .  S
C2118      O2821   1.283       .  A
O2120      H2156   0.990       .  S
O2121      C2843   1.288       .  A
O2122      C2123   1.285       .  A
C2123      O2841   1.290       .  A
O2124     Zr2845   2.438       .  S
O2124      H2153   0.990       .  S
Zr2125     O2844   2.438       .  S
Zr2125     O2848   2.437       .  S
Zr2125     O2129   2.444       .  S
Zr2125     O2130   2.408       .  S
Zr2125     O2825   2.375       .  S
O2126      C2131   1.296       .  A
O2127      H2144   0.990       .  S
O2127      H2159   0.990       .  S
O2128     Zr2845   2.437       .  S
O2128      H2145   0.990       .  S
O2129      H2149   0.990       .  S
O2129      H2158   0.990       .  S
O2130      C2131   1.273       .  A
O2132      H2151   0.991       .  S
O2132      H2155   0.990       .  S
O2133      H2147   0.990       .  S
O2133      H2154   0.990       .  S
O2134      C2138   1.281       .  A
O2135      C2138   1.291       .  A
O2136      H2146   0.990       .  S
O2137      H2150   0.990       .  S
H2157      O2832   0.990       .  S
C2161      C2162   1.521       .  S
C2161      C2167   1.516       .  S
C2161      C2165   1.552       .  S
C2161      C2281   1.502       .  S
C2162      H2169   1.082       .  S
C2162      C2163   1.375       .  D
C2163      C2164   1.573       .  S
C2163      C2216   1.496       .  S
C2164      C2168   1.563       .  S
C2164      C2166   1.538       .  S
C2164      H2170   1.107       .  S
C2165      H2171   1.084       .  S
C2165      C2166   1.357       .  D
C2166      C2483   1.490       .  S
C2167      H2172   1.088       .  S
C2167      C2168   1.354       .  D
C2168      C2366   1.483       .  S
C2173      C2174   1.520       .  S
C2173      C2179   1.518       .  S
C2173      C2177   1.549       .  S
C2173      C2413   1.496       .  S
C2174      H2181   1.082       .  S
C2174      C2175   1.374       .  D
C2175      C2176   1.574       .  S
C2175      C2252   1.496       .  S
C2176      C2180   1.566       .  S
C2176      C2178   1.541       .  S
C2176      H2182   1.106       .  S
C2177      H2183   1.083       .  S
C2177      C2178   1.354       .  D
C2178      C2351   1.490       .  S
C2179      H2184   1.088       .  S
C2179      C2180   1.354       .  D
C2180      C2498   1.488       .  S
C2185      C2186   1.535       .  S
C2185      C2191   1.520       .  S
C2185      C2549   1.536       .  S
C2185      C2279   1.491       .  S
C2186      H2553   1.086       .  S
C2186      C2187   1.368       .  D
C2187      C2188   1.543       .  S
C2187      C2772   1.469       .  S
C2188      C2192   1.557       .  S
C2188      C2550   1.552       .  S
C2188      H2194   1.106       .  S
C2189      C2545   1.536   1_554  S
C2189      H2195   1.081       .  S
C2189      C2190   1.368       .  D
C2190      C2548   1.552   1_554  S
C2190      C2223   1.494       .  S
C2191      H2196   1.088       .  S
C2191      C2192   1.350       .  D
C2192      C2359   1.486       .  S
H2193      C2546   1.086       .  S
C2197      C2198   1.533       .  S
C2197      C2203   1.525       .  S
C2197      C2561   1.537       .  S
C2197      C2411   1.494       .  S
C2198      H2565   1.086       .  S
C2198      C2199   1.366       .  D
C2199      C2200   1.541       .  S
C2199      C2640   1.466       .  S
C2200      C2204   1.563       .  S
C2200      C2562   1.555       .  S
C2200      H2206   1.107       .  S
C2201      C2557   1.537   1_554  S
C2201      H2207   1.081       .  S
C2201      C2202   1.366       .  D
C2202      C2560   1.556   1_554  S
C2202      C2235   1.501       .  S
C2203      H2208   1.088       .  S
C2203      C2204   1.352       .  D
C2204      C2491   1.496       .  S
H2205      C2558   1.086       .  S
C2209      C2210   1.511       .  S
C2209      C2300   1.484       .  S
C2210      H2217   1.089       .  S
C2210      C2211   1.349       .  D
C2211      C2212   1.563       .  S
C2211      C2347   1.473       .  S
C2213      H2219   1.073   1_545  S
C2215      H2220   1.082       .  S
C2215      C2216   1.373       .  D
C2221      C2225   1.530       .  S
C2222      H2589   1.081       .  S
C2222      C2223   1.369       .  D
C2224      C2228   1.567       .  S
C2224      C2226   1.548       .  S
C2224      H2230   1.106       .  S
C2225      H2231   1.084       .  S
C2225      C2226   1.364       .  D
C2226      C2417   1.470       .  S
C2227      H2232   1.088       .  S
C2228      C2345   1.502       .  S
H2229      C2582   1.081       .  S
C2233      C2234   1.536       .  S
C2233      C2239   1.527       .  S
C2233      C2237   1.532       .  S
C2233      C2425   1.498       .  S
C2234      H2601   1.082       .  S
C2235      C2236   1.555       .  S
C2236      H2242   1.106       .  S
C2237      H2243   1.084       .  S
C2237      C2238   1.365       .  D
C2238      C2285   1.476       .  S
C2239      H2244   1.088       .  S
C2239      C2240   1.352       .  D
C2240      C2477   1.515       .  S
H2241      C2594   1.082       .  S
C2245      C2246   1.512       .  S
C2245      C2251   1.522       .  S
C2245      C2249   1.541       .  S
C2245      C2432   1.484       .  S
C2246      H2253   1.089       .  S
C2246      C2247   1.349       .  D
C2247      C2248   1.567       .  S
C2247      C2479   1.475       .  S
C2248      C2252   1.573       .  S
C2248      C2250   1.535       .  S
C2248      H2254   1.106       .  S
C2249      H2255   1.075       .  S
C2249      C2250   1.352       .  D
C2250      C2346   1.481       .  S
C2251      H2256   1.082       .  S
C2251      C2252   1.371       .  D
Zr2257     O2258   2.448       .  S
Zr2257     O2259   2.430       .  S
Zr2257     O2260   2.378       .  S
Zr2257     O2263   2.388       .  S
Zr2257     O2265   2.381       .  S
Zr2257     O2626   2.372       .  S
Zr2257     O2267   2.417       .  S
Zr2257     O2628   2.400       .  S
O2258      H2314   0.990       .  S
O2258      H2322   0.989       .  S
O2259      C2279   1.282       .  A
O2260      C2281   1.273       .  A
O2261     Zr2271   2.481       .  S
O2261      C2280   1.289       .  A
O2262      C2281   1.292       .  A
O2263      C2640   1.269       .  A
O2264     Zr2272   2.399   1_655  S
O2264      C2639   1.276       .  A
O2265     Zr2632   2.382   1_655  S
O2266     Zr2617   2.372   1_554  S
O2266     Zr2271   2.380       .  S
O2266     Zr2272   2.379   1_655  S
O2266      H2301   0.965       .  S
O2268     Zr2617   2.397   1_554  S
O2268     Zr2271   2.389       .  S
Zr2269     O2288   2.419       .  S
Zr2269     O2284   2.337       .  S
Zr2270     O2282   2.436       .  S
Zr2270     O2283   2.548       .  S
Zr2270     O2636   2.379       .  S
Zr2271     O2295   2.438       .  S
Zr2271     O2297   2.461       .  S
Zr2271     O2275   2.386       .  S
Zr2272     O2298   2.433   1_455  S
Zr2272     O2625   2.380   1_454  S
Zr2272     O2275   2.383   1_455  S
O2273      H2310   0.990       .  S
O2274      H2305   0.990       .  S
O2274      H2679   0.990   1_554  S
O2276     Zr2630   2.380   1_554  S
O2276      H2302   0.964       .  S
O2277     Zr2287   2.271   1_554  S
O2278     Zr2287   2.377   1_554  S
O2278      H2303   0.965       .  S
C2279      O2624   1.276       .  A
C2280      C2559   1.468   1_554  S
C2280      O2623   1.269   1_554  A
O2282      H2318   0.990       .  S
O2284      C2285   1.265       .  A
O2286     Zr2647   2.435       .  S
O2286      H2315   0.990       .  S
Zr2287     O2646   2.434       .  S
Zr2287     O2650   2.439       .  S
Zr2287     O2291   2.440   1_556  S
Zr2287     O2292   2.409   1_556  S
O2289      H2306   0.990       .  S
O2289      H2321   0.990       .  S
O2290     Zr2647   2.437       .  S
O2290      H2307   0.990       .  S
O2291      H2311   0.990       .  S
O2291      H2320   0.990       .  S
O2292      C2293   1.278       .  A
O2294      H2313   0.990       .  S
O2294      H2317   0.989       .  S
O2295      H2309   0.990       .  S
O2295      H2316   0.989       .  S
O2296      C2300   1.274       .  A
O2298      H2308   0.990       .  S
O2299      H2312   0.988       .  S
H2319      O2634   0.990       .  S
Zr2323     O2324   2.446       .  S
Zr2323     O2325   2.484       .  S
Zr2323     O2329   2.448       .  S
Zr2323     O2332   2.389       .  S
Zr2323     O2334   2.419       .  S
O2324      H2380   0.991       .  S
O2324      H2388   0.991       .  S
O2325      C2345   1.292       .  A
O2326      C2347   1.288       .  A
O2327     Zr2337   2.449       .  S
O2327      C2346   1.288       .  A
O2328     Zr2336   2.456       .  S
O2328      C2347   1.289       .  A
O2329      C2346   1.285       .  A
O2330     Zr2338   2.429       .  S
O2331     Zr2336   2.405       .  S
O2331     Zr2338   2.387       .  S
O2332     Zr2337   2.403       .  S
O2332      H2367   0.966       .  S
O2333     Zr2336   2.407       .  S
O2333     Zr2353   2.373       .  S
O2333      H2370   0.963       .  S
O2334     Zr2337   2.397       .  S
Zr2335     O2360   2.436       .  S
Zr2335     O2354   2.473       .  S
Zr2335     O2362   2.455       .  S
Zr2335     O2350   2.457       .  S
Zr2335     O2341   2.403       .  S
Zr2335     O2342   2.419       .  S
Zr2335     O2343   2.380       .  S
Zr2335     O2344   2.387       .  S
Zr2336     O2355   2.438       .  S
Zr2336     O2348   2.435       .  S
Zr2336     O2349   2.468       .  S
Zr2336     O2342   2.399       .  S
Zr2336     O2343   2.397       .  S
Zr2337     O2339   2.436       .  S
Zr2337     O2361   2.436       .  S
Zr2338     O2364   2.434       .  S
Zr2338     O2365   2.436       .  S
Zr2338     O2340   2.438       .  S
Zr2338     O2341   2.390       .  S
Zr2338     O2342   2.409       .  S
O2339      H2376   0.990       .  S
O2340      H2371   0.990       .  S
O2340      H2385   0.990       .  S
O2342      H2368   0.965       .  S
O2343     Zr2353   2.389       .  S
O2344     Zr2353   2.385       .  S
O2344      H2369   0.966       .  S
O2348      H2384   0.990       .  S
O2349      C2351   1.291       .  A
O2350      C2351   1.288       .  A
O2352      H2381   0.990       .  S
Zr2353     O2356   2.440       .  S
Zr2353     O2358   2.417       .  S
O2354      C2359   1.289       .  A
O2355      H2372   0.990       .  S
O2355      H2387   0.990       .  S
O2356      H2373   0.991       .  S
O2357      H2377   0.990       .  S
O2357      H2386   0.990       .  S
O2358      C2359   1.274       .  A
O2360      H2379   0.990       .  S
O2360      H2383   0.991       .  S
O2361      H2375   0.990       .  S
O2361      H2382   0.990       .  S
O2362      C2366   1.285       .  A
O2363      C2366   1.290       .  A
O2364      H2374   0.990       .  S
O2365      H2378   0.990       .  S
Zr2389     O2390   2.449       .  S
Zr2389     O2391   2.424       .  S
Zr2389     O2392   2.376       .  S
Zr2389     O2395   2.386       .  S
Zr2389     O2397   2.379       .  S
Zr2389     O2758   2.373       .  S
Zr2389     O2399   2.416       .  S
Zr2389     O2760   2.400       .  S
O2390      H2446   0.990       .  S
O2390      H2454   0.989       .  S
O2391      C2411   1.280       .  A
O2392      C2413   1.272       .  A
O2393     Zr2403   2.485       .  S
O2393      C2412   1.290       .  A
O2394     Zr2402   2.469       .  S
O2394      C2413   1.289       .  A
O2395      C2772   1.269       .  A
O2396     Zr2404   2.401       .  S
O2396      C2771   1.276       .  A
O2397     Zr2402   2.414       .  S
O2397     Zr2764   2.383       .  S
O2398     Zr2749   2.374   1_554  S
O2398     Zr2403   2.374       .  S
O2398     Zr2404   2.379       .  S
O2398      H2433   0.965       .  S
O2399     Zr2402   2.421       .  S
O2399     Zr2419   2.381       .  S
O2399      H2436   0.964       .  S
O2400     Zr2749   2.397   1_554  S
O2400     Zr2403   2.389       .  S
O2400     Zr2779   2.393   1_554  S
Zr2401     O2426   2.439       .  S
Zr2401     O2420   2.410       .  S
Zr2401     O2428   2.367       .  S
Zr2401     O2416   2.353       .  S
Zr2401     O2407   2.382       .  S
Zr2401     O2408   2.386       .  S
Zr2401     O2410   2.379       .  S
Zr2401     O2409   2.254       .  S
Zr2402     O2421   2.440       .  S
Zr2402     O2414   2.436       .  S
Zr2402     O2415   2.524       .  S
Zr2402     O2768   2.388       .  S
Zr2402     O2769   2.275       .  S
Zr2403     O2405   2.435       .  S
Zr2403     O2427   2.443       .  S
Zr2403     O2429   2.451       .  S
Zr2403     O2407   2.393       .  S
Zr2403     O2410   2.398       .  S
Zr2404     O2430   2.435       .  S
Zr2404     O2431   2.436       .  S
Zr2404     O2406   2.431       .  S
Zr2404     O2757   2.383   1_554  S
Zr2404     O2407   2.385       .  S
Zr2404     O2408   2.396       .  S
O2405      H2442   0.990       .  S
O2406      H2437   0.990       .  S
O2406      H2811   0.990   1_554  S
O2408     Zr2762   2.384   1_554  S
O2408      H2434   0.965       .  S
O2409     Zr2762   2.274   1_554  S
O2409     Zr2779   2.271   1_554  S
O2410     Zr2779   2.376   1_554  S
O2410      H2435   0.965       .  S
C2411      O2756   1.277       .  A
C2412      C2547   1.470   1_554  S
C2412      O2755   1.269   1_554  A
O2414      H2450   0.990       .  S
O2415      C2777   1.302       .  A
O2416      C2417   1.268       .  A
C2417      O2775   1.302   1_554  A
O2418     Zr2419   2.434       .  S
O2418      H2447   0.990       .  S
Zr2419     O2422   2.437       .  S
Zr2419     O2783   2.440       .  S
Zr2419     O2784   2.412       .  S
Zr2419     O2760   2.394       .  S
Zr2419     O2770   2.377       .  S
Zr2419     O2769   2.271       .  S
O2420      C2425   1.282       .  A
O2421      H2438   0.990       .  S
O2421      H2453   0.990       .  S
O2422      H2439   0.990       .  S
O2423     Zr2779   2.441   1_554  S
O2423      H2443   0.990       .  S
O2423      H2452   0.990       .  S
O2424     Zr2779   2.415   1_554  S
O2424      C2425   1.280       .  A
O2426      H2445   0.990       .  S
O2426      H2449   0.990       .  S
O2427      H2441   0.989       .  S
O2427      H2448   0.989       .  S
O2428      C2432   1.274       .  A
O2429      C2432   1.286       .  A
O2430      H2440   0.990       .  S
O2431      H2444   0.989       .  S
H2451      O2766   0.990       .  S
Zr2455     O2456   2.450       .  S
Zr2455     O2457   2.503       .  S
Zr2455     O2458   2.446       .  S
Zr2455     O2461   2.423       .  S
Zr2455     O2463   2.377       .  S
Zr2455     O2465   2.411       .  S
O2456      H2512   0.990       .  S
O2456      H2520   0.990       .  S
O2457      C2477   1.302       .  A
O2458      C2479   1.287       .  A
O2459     Zr2469   2.469       .  S
O2459      C2478   1.291   1_565  A
O2460     Zr2468   2.455       .  S
O2460      C2479   1.288       .  A
O2462     Zr2470   2.448       .  S
O2463     Zr2468   2.403       .  S
O2464     Zr2469   2.397       .  S
O2464     Zr2470   2.368       .  S
O2464      H2499   0.966       .  S
O2465     Zr2468   2.397       .  S
O2465      H2502   0.964       .  S
O2466     Zr2469   2.391       .  S
O2466     Zr2485   2.397   1_565  S
Zr2467     O2492   2.424       .  S
Zr2467     O2486   2.494       .  S
Zr2467     O2494   2.449       .  S
Zr2467     O2482   2.453       .  S
Zr2467     O2473   2.410       .  S
Zr2467     O2474   2.419       .  S
Zr2467     O2475   2.373       .  S
Zr2467     O2476   2.388       .  S
Zr2468     O2487   2.437       .  S
Zr2468     O2480   2.435       .  S
Zr2468     O2481   2.455       .  S
Zr2469     O2471   2.438       .  S
Zr2469     O2493   2.437       .  S
Zr2469     O2495   2.472       .  S
Zr2469     O2473   2.389       .  S
Zr2469     O2476   2.405       .  S
Zr2470     O2496   2.436       .  S
Zr2470     O2497   2.436       .  S
Zr2470     O2472   2.430       .  S
Zr2470     O2473   2.396       .  S
Zr2470     O2474   2.419       .  S
O2471      H2508   0.990       .  S
O2472      H2503   0.990       .  S
O2474      H2500   0.965       .  S
O2475     Zr2485   2.388   1_565  S
O2476     Zr2485   2.388   1_565  S
O2476      H2501   0.966       .  S
O2480      H2516   0.990       .  S
O2482      C2483   1.286       .  A
O2484      H2513   0.990       .  S
Zr2485     O2489   2.440   1_545  S
Zr2485     O2490   2.417   1_545  S
O2486      C2491   1.296       .  A
O2487      H2504   0.990       .  S
O2487      H2519   0.990       .  S
O2488      H2505   0.990       .  S
O2489      H2509   0.990       .  S
O2489      H2518   0.989       .  S
O2490      C2491   1.276       .  A
O2492      H2511   0.991       .  S
O2492      H2515   0.991       .  S
O2493      H2507   0.990       .  S
O2493      H2514   0.990       .  S
O2494      C2498   1.281       .  A
O2495      C2498   1.292       .  A
O2496      H2506   0.990       .  S
O2497      H2510   0.990       .  S
C2521      C2522   1.522       .  S
C2521      C2527   1.516       .  S
C2521      C2525   1.550       .  S
C2521      C2641   1.494       .  S
C2522      H2529   1.082       .  S
C2522      C2523   1.375       .  D
C2523      C2524   1.572       .  S
C2523      C2576   1.495       .  S
C2524      C2528   1.560       .  S
C2524      C2526   1.536       .  S
C2524      H2530   1.106       .  S
C2525      H2531   1.085       .  S
C2525      C2526   1.354       .  D
C2526      C2843   1.482       .  S
C2527      H2532   1.088       .  S
C2527      C2528   1.353       .  D
C2528      C2726   1.480       .  S
C2533      C2534   1.522       .  S
C2533      C2539   1.516       .  S
C2533      C2537   1.548       .  S
C2533      C2773   1.495       .  S
C2534      H2541   1.082       .  S
C2534      C2535   1.375       .  D
C2535      C2536   1.574       .  S
C2535      C2612   1.497       .  S
C2536      C2540   1.565       .  S
C2536      C2538   1.540       .  S
C2536      H2542   1.106       .  S
C2537      H2543   1.084       .  S
C2537      C2538   1.353       .  D
C2538      C2711   1.487       .  S
C2539      H2544   1.088       .  S
C2539      C2540   1.354       .  D
C2540      C2858   1.484       .  S
C2545      C2546   1.534   1_556  S
C2545      C2551   1.523       .  S
C2545      C2639   1.494   1_556  S
C2546      C2547   1.366   1_554  D
C2547      C2548   1.543       .  S
C2548      C2552   1.559       .  S
C2548      H2554   1.106       .  S
C2549      H2555   1.081       .  S
C2549      C2550   1.365       .  D
C2550      C2583   1.494       .  S
C2551      H2556   1.088       .  S
C2551      C2552   1.353       .  D
C2552      C2719   1.493       .  S
C2557      C2558   1.534   1_556  S
C2557      C2563   1.522       .  S
C2557      C2771   1.491   1_556  S
C2558      C2559   1.366   1_554  D
C2559      C2560   1.543       .  S
C2560      C2564   1.563       .  S
C2560      H2566   1.107       .  S
C2561      H2567   1.081       .  S
C2561      C2562   1.366       .  D
C2562      C2595   1.501       .  S
C2563      H2568   1.088       .  S
C2563      C2564   1.351       .  D
C2564      C2851   1.494       .  S
C2569      C2570   1.513       .  S
C2569      C2660   1.487       .  S
C2570      H2577   1.089       .  S
C2570      C2571   1.349       .  D
C2571      C2572   1.564       .  S
C2571      C2707   1.476       .  S
C2573      H2579   1.070   1_545  S
C2575      H2580   1.082       .  S
C2575      C2576   1.372       .  D
C2581      C2585   1.529       .  S
C2582      C2583   1.367       .  D
C2584      C2588   1.566       .  S
C2584      C2586   1.546       .  S
C2584      H2590   1.105       .  S
C2585      H2591   1.083       .  S
C2585      C2586   1.363       .  D
C2586      C2777   1.466       .  S
C2587      H2592   1.088       .  S
C2588      C2705   1.499       .  S
C2593      C2594   1.536       .  S
C2593      C2599   1.525       .  S
C2593      C2597   1.531       .  S
C2593      C2785   1.497       .  S
C2595      C2596   1.556       .  S
C2596      H2602   1.106       .  S
C2597      H2603   1.083       .  S
C2597      C2598   1.364       .  D
C2598      C2645   1.477       .  S
C2599      H2604   1.088       .  S
C2599      C2600   1.352       .  D
C2600      C2837   1.515       .  S
C2605      C2606   1.512       .  S
C2605      C2611   1.523       .  S
C2605      C2609   1.542       .  S
C2605      C2792   1.488       .  S
C2606      H2613   1.089       .  S
C2606      C2607   1.350       .  D
C2607      C2608   1.565       .  S
C2607      C2839   1.473       .  S
C2608      C2612   1.572       .  S
C2608      C2610   1.534       .  S
C2608      H2614   1.106       .  S
C2609      H2615   1.075       .  S
C2609      C2610   1.353       .  D
C2610      C2706   1.480       .  S
C2611      H2616   1.082       .  S
C2611      C2612   1.372       .  D
Zr2617     O2618   2.449       .  S
Zr2617     O2619   2.427       .  S
Zr2617     O2620   2.376       .  S
Zr2617     O2623   2.391       .  S
Zr2617     O2625   2.376       .  S
Zr2617     O2627   2.412       .  S
O2618      H2674   0.990       .  S
O2618      H2682   0.989       .  S
O2619      C2639   1.281   1_556  A
O2620      C2641   1.274       .  A
O2621     Zr2631   2.478       .  S
O2621      C2640   1.288       .  A
O2622      C2641   1.290   1_455  A
O2624     Zr2632   2.396   1_655  S
O2626     Zr2631   2.371       .  S
O2626     Zr2632   2.373   1_655  S
O2626      H2661   0.965       .  S
O2628     Zr2631   2.395       .  S
Zr2629     O2648   2.417       .  S
Zr2629     O2644   2.341       .  S
Zr2630     O2642   2.435       .  S
Zr2630     O2643   2.547       .  S
Zr2631     O2655   2.445       .  S
Zr2631     O2657   2.454       .  S
Zr2631     O2635   2.388       .  S
Zr2632     O2658   2.436   1_455  S
Zr2632     O2635   2.386   1_455  S
O2633      H2670   0.990       .  S
O2634      H2665   0.990       .  S
O2636      H2662   0.964       .  S
O2637     Zr2647   2.269       .  S
O2638     Zr2647   2.378       .  S
O2638      H2663   0.965       .  S
O2642      H2678   0.990       .  S
O2644      C2645   1.266       .  A
O2646      H2675   0.990       .  S
Zr2647     O2651   2.440       .  S
Zr2647     O2652   2.409       .  S
O2649      H2666   0.990       .  S
O2649      H2681   0.990       .  S
O2650      H2667   0.990       .  S
O2651      H2671   0.990       .  S
O2651      H2680   0.990       .  S
O2652      C2653   1.279       .  A
O2654      H2673   0.990       .  S
O2654      H2677   0.989       .  S
O2655      H2669   0.990       .  S
O2655      H2676   0.989       .  S
O2656      C2660   1.274       .  A
O2658      H2668   0.990       .  S
O2659      H2672   0.988       .  S
Zr2683     O2684   2.446       .  S
Zr2683     O2685   2.479       .  S
Zr2683     O2689   2.449       .  S
Zr2683     O2692   2.387       .  S
Zr2683     O2694   2.417       .  S
O2684      H2740   0.990       .  S
O2684      H2748   0.991       .  S
O2685      C2705   1.291       .  A
O2686      C2707   1.288       .  A
O2687     Zr2697   2.447       .  S
O2687      C2706   1.287       .  A
O2688     Zr2696   2.458       .  S
O2688      C2707   1.290       .  A
O2689      C2706   1.285       .  A
O2690     Zr2698   2.436       .  S
O2691     Zr2696   2.409       .  S
O2691     Zr2698   2.389       .  S
O2692     Zr2697   2.405       .  S
O2692      H2727   0.966       .  S
O2693     Zr2696   2.405       .  S
O2693     Zr2713   2.380       .  S
O2693      H2730   0.962       .  S
O2694     Zr2697   2.398       .  S
Zr2695     O2720   2.437       .  S
Zr2695     O2714   2.482       .  S
Zr2695     O2722   2.449       .  S
Zr2695     O2710   2.456       .  S
Zr2695     O2701   2.409       .  S
Zr2695     O2702   2.422       .  S
Zr2695     O2703   2.375       .  S
Zr2695     O2704   2.383       .  S
Zr2696     O2715   2.437       .  S
Zr2696     O2708   2.435       .  S
Zr2696     O2709   2.468       .  S
Zr2696     O2702   2.401       .  S
Zr2696     O2703   2.400       .  S
Zr2697     O2699   2.437       .  S
Zr2697     O2721   2.439       .  S
Zr2698     O2724   2.434       .  S
Zr2698     O2725   2.437       .  S
Zr2698     O2700   2.434       .  S
Zr2698     O2701   2.394       .  S
Zr2698     O2702   2.409       .  S
O2699      H2736   0.990       .  S
O2700      H2731   0.990       .  S
O2700      H2745   0.990       .  S
O2702      H2728   0.964       .  S
O2703     Zr2713   2.387       .  S
O2704     Zr2713   2.382       .  S
O2704      H2729   0.966       .  S
O2708      H2744   0.990       .  S
O2709      C2711   1.291       .  A
O2710      C2711   1.288       .  A
O2712      H2741   0.990       .  S
Zr2713     O2716   2.440       .  S
Zr2713     O2718   2.423       .  S
O2714      C2719   1.291       .  A
O2715      H2732   0.990       .  S
O2715      H2747   0.990       .  S
O2716      H2733   0.990       .  S
O2717      H2737   0.990       .  S
O2717      H2746   0.990       .  S
O2718      C2719   1.276       .  A
O2720      H2739   0.990       .  S
O2720      H2743   0.991       .  S
O2721      H2735   0.990       .  S
O2721      H2742   0.990       .  S
O2722      C2726   1.284       .  A
O2723      C2726   1.291       .  A
O2724      H2734   0.990       .  S
O2725      H2738   0.990       .  S
Zr2749     O2750   2.449       .  S
Zr2749     O2751   2.424       .  S
Zr2749     O2752   2.379       .  S
Zr2749     O2755   2.392       .  S
Zr2749     O2757   2.382       .  S
Zr2749     O2759   2.414       .  S
O2750      H2806   0.990       .  S
O2750      H2814   0.989       .  S
O2751      C2771   1.281   1_556  A
O2752      C2773   1.274       .  A
O2753     Zr2763   2.486       .  S
O2753      C2772   1.290       .  A
O2754     Zr2762   2.462       .  S
O2754      C2773   1.288       .  A
O2756     Zr2764   2.407       .  S
O2757     Zr2762   2.414       .  S
O2758     Zr2763   2.377       .  S
O2758     Zr2764   2.377       .  S
O2758      H2793   0.965       .  S
O2759     Zr2762   2.423       .  S
O2759     Zr2779   2.380       .  S
O2759      H2796   0.964       .  S
O2760     Zr2763   2.391       .  S
Zr2761     O2786   2.439       .  S
Zr2761     O2780   2.411       .  S
Zr2761     O2788   2.367       .  S
Zr2761     O2776   2.343       .  S
Zr2761     O2767   2.377       .  S
Zr2761     O2768   2.390       .  S
Zr2761     O2770   2.377       .  S
Zr2761     O2769   2.257       .  S
Zr2762     O2781   2.439       .  S
Zr2762     O2774   2.436       .  S
Zr2762     O2775   2.522       .  S
Zr2763     O2765   2.435       .  S
Zr2763     O2787   2.440       .  S
Zr2763     O2789   2.459       .  S
Zr2763     O2767   2.389       .  S
Zr2763     O2770   2.397       .  S
Zr2764     O2790   2.435       .  S
Zr2764     O2791   2.437       .  S
Zr2764     O2766   2.433       .  S
Zr2764     O2767   2.385       .  S
Zr2764     O2768   2.402       .  S
O2765      H2802   0.990       .  S
O2766      H2797   0.990       .  S
O2768      H2794   0.964       .  S
O2770      H2795   0.965       .  S
O2774      H2810   0.990       .  S
O2776      C2777   1.266       .  A
O2778     Zr2779   2.434       .  S
O2778      H2807   0.990       .  S
Zr2779     O2782   2.438       .  S
O2780      C2785   1.282       .  A
O2781      H2798   0.990       .  S
O2781      H2813   0.990       .  S
O2782      H2799   0.990       .  S
O2783      H2803   0.990       .  S
O2783      H2812   0.989       .  S
O2784      C2785   1.279       .  A
O2786      H2805   0.990       .  S
O2786      H2809   0.989       .  S
O2787      H2801   0.990       .  S
O2787      H2808   0.989       .  S
O2788      C2792   1.273       .  A
O2789      C2792   1.286       .  A
O2790      H2800   0.990       .  S
O2791      H2804   0.989       .  S
Zr2815     O2816   2.449       .  S
Zr2815     O2817   2.511       .  S
Zr2815     O2818   2.446       .  S
Zr2815     O2821   2.428       .  S
Zr2815     O2823   2.377       .  S
Zr2815     O2825   2.412       .  S
O2816      H2872   0.990       .  S
O2816      H2880   0.990       .  S
O2817      C2837   1.303       .  A
O2818      C2839   1.288       .  A
O2819     Zr2829   2.465       .  S
O2819      C2838   1.291       .  A
O2820     Zr2828   2.455       .  S
O2820      C2839   1.288       .  A
O2822     Zr2830   2.453       .  S
O2823     Zr2828   2.405       .  S
O2824     Zr2829   2.395       .  S
O2824     Zr2830   2.374       .  S
O2824      H2859   0.966       .  S
O2825     Zr2828   2.402       .  S
O2825      H2862   0.964       .  S
O2826     Zr2829   2.385       .  S
O2826     Zr2845   2.401   1_565  S
Zr2827     O2852   2.426       .  S
Zr2827     O2846   2.490       .  S
Zr2827     O2854   2.454       .  S
Zr2827     O2842   2.447       .  S
Zr2827     O2833   2.407       .  S
Zr2827     O2834   2.421       .  S
Zr2827     O2835   2.373       .  S
Zr2827     O2836   2.386       .  S
Zr2828     O2847   2.437       .  S
Zr2828     O2840   2.435       .  S
Zr2828     O2841   2.467       .  S
Zr2829     O2831   2.436       .  S
Zr2829     O2853   2.437       .  S
Zr2829     O2855   2.461       .  S
Zr2829     O2833   2.390       .  S
Zr2829     O2836   2.403       .  S
Zr2830     O2856   2.435       .  S
Zr2830     O2857   2.437       .  S
Zr2830     O2832   2.437       .  S
Zr2830     O2833   2.398       .  S
Zr2830     O2834   2.414       .  S
O2831      H2868   0.990       .  S
O2832      H2863   0.990       .  S
O2834      H2860   0.965       .  S
O2835     Zr2845   2.382   1_565  S
O2836     Zr2845   2.388   1_565  S
O2836      H2861   0.966       .  S
O2840      H2876   0.990       .  S
O2842      C2843   1.285       .  A
O2844      H2873   0.990       .  S
Zr2845     O2849   2.440   1_545  S
Zr2845     O2850   2.416   1_545  S
O2846      C2851   1.295       .  A
O2847      H2864   0.990       .  S
O2847      H2879   0.990       .  S
O2848      H2865   0.990       .  S
O2849      H2869   0.991   1_565  S
O2849      H2878   0.990       .  S
O2850      C2851   1.275       .  A
O2852      H2871   0.991       .  S
O2852      H2875   0.990       .  S
O2853      H2867   0.990       .  S
O2853      H2874   0.990       .  S
O2854      C2858   1.282       .  A
O2855      C2858   1.290       .  A
O2856      H2866   0.990       .  S
O2857      H2870   0.990       .  S
