geometry optimzed in LAMMPS
_audit_creation_date              2020-12-01 
_audit_creation_method            'lammps2cif' 
_symmetry_space_group_name_H-M    'P1' 
_symmetry_Int_Tables_number       1 
_symmetry_cell_setting            triclinic 
loop_ 
_symmetry_equiv_pos_as_xyz 
  x,y,z 
_cell_length_a                    29.01062915 
_cell_length_b                    29.031872880009388 
_cell_length_c                    29.067628322331934 
_cell_angle_alpha                 89.86079709573374 
_cell_angle_beta                  89.85852385171363 
_cell_angle_gamma                 89.82850342166219 
loop_ 
_atom_site_label 
_atom_site_type_symbol 
_atom_site_fract_x 
_atom_site_fract_y 
_atom_site_fract_z 
_atom_site_charge 
Fe1        Fe  0.67035031  0.75161019  0.67239739     1.65800
Fe2        Fe  0.75564261  0.67002494  0.67203560     1.73200
Fe3        Fe  0.67342796  0.66972370  0.75689592     1.54400
O4          O  0.67318763  0.73228241  0.79023737    -0.80900
O5          O  0.73373697  0.60285599  0.68307042    -0.79200
O6          O  0.66178031  0.78473119  0.73563000    -0.83400
O7          O  0.60464561  0.72464837  0.67550398    -0.78200
O8          O  0.73710472  0.65771525  0.78680253    -0.80000
O9          O  0.72632686  0.66740021  0.60681601    -0.82700
C10         C  0.58434916  0.69859577  0.70403210     0.98000
C11         C  0.66654513  0.77367206  0.77780741     1.05500
O12         O  0.69949781  0.69683514  0.70009316    -1.11700
O13         O  0.78621588  0.73285172  0.65695949    -0.74200
O14         O  0.73220397  0.78559239  0.66638289    -0.77600
O15         O  0.60525289  0.67776857  0.73628717    -0.78300
C16         C  0.77350592  0.77467726  0.65725353     0.96900
O17         O  0.67580367  0.72570914  0.60550377    -0.76300
O18         O  0.79095721  0.67119954  0.73407592    -0.81500
C19         C  0.70062011  0.58327820  0.70394059     0.99600
C20         C  0.77897151  0.66345694  0.77547464     1.05500
O21         O  0.67226335  0.60448465  0.72951951    -0.77100
C22         C  0.69766005  0.69311613  0.58579621     1.03800
Fe23       Fe  0.75328014  0.12137359  0.67475386     1.65800
Fe24       Fe  0.66890189  0.04002396  0.67328115     1.73200
Fe25       Fe  0.67204650  0.11884636  0.76013927     1.54400
O26         O  0.73610151  0.12961709  0.78987978    -0.80900
O27         O  0.60358600  0.06882676  0.67548742    -0.79200
O28         O  0.78891596  0.11586619  0.73615014    -0.83400
O29         O  0.73218003  0.18808326  0.68933563    -0.78200
O30         O  0.67228386  0.05548801  0.79165517    -0.80000
O31         O  0.67688443  0.06663766  0.60641102    -0.82700
C32         C  0.69881806  0.20699930  0.71044558     0.98000
C33         C  0.77771850  0.12312528  0.77779391     1.05500
O34         O  0.69764886  0.09376693  0.70233737    -1.11700
O35         O  0.73094976  0.00569751  0.66872369    -0.74200
O36         O  0.78303979  0.05945501  0.65592697    -0.77600
O37         O  0.67017261  0.18494680  0.73485825    -0.78300
C38         C  0.77145852  0.01746740  0.65732871     0.96900
O39         O  0.72349691  0.12767860  0.61012963    -0.76300
O40         O  0.65809713  0.00539627  0.73586103    -0.81500
C41         C  0.58323757  0.09337746  0.70540068     0.99600
C42         C  0.66387460  0.01490849  0.77826762     1.05500
O43         O  0.60393563  0.11147261  0.73926516    -0.77100
C44         C  0.69758575  0.10059662  0.58768640     1.03800
Fe45       Fe  0.11669377  0.03807890  0.67034022     1.65800
Fe46       Fe  0.03421682  0.12211420  0.66902860     1.73200
Fe47       Fe  0.11880849  0.12321277  0.75024865     1.54400
O48         O  0.13229545  0.06020087  0.78297146    -0.80900
O49         O  0.06344247  0.18691611  0.66379067    -0.79200
O50         O  0.11485380  0.00496611  0.73331109    -0.83400
O51         O  0.18485501  0.05888370  0.68048268    -0.78200
O52         O  0.05715571  0.12464411  0.78483800    -0.80000
O53         O  0.05591348  0.10892966  0.60199579    -0.82700
C54         C  0.20483932  0.09353487  0.69811332     0.98000
C55         C  0.12532356  0.01792021  0.77362802     1.05500
O56         O  0.09022108  0.09483662  0.69619710    -1.11700
O57         O  0.99892766  0.06036632  0.67278315    -0.74200
O58         O  0.05286396  0.00847953  0.65640633    -0.77600
O59         O  0.18355448  0.12398879  0.72102127    -0.78300
C60         C  0.01089702  0.01938812  0.66326329     0.96900
O61         O  0.11990362  0.06597289  0.60516858    -0.76300
O62         O  0.00455078  0.13920595  0.73188955    -0.81500
C63         C  0.08872239  0.20914502  0.69152707     0.99600
C64         C  0.01649899  0.13606179  0.77377107     1.05500
O65         O  0.10885337  0.19029471  0.72563117    -0.77100
C66         C  0.09053159  0.08970184  0.58312201     1.03800
Fe67       Fe  0.03555061  0.67724605  0.66943388     1.65800
Fe68       Fe  0.11817051  0.76077295  0.66932117     1.73200
Fe69       Fe  0.12135272  0.67457238  0.74873510     1.54400
O70         O  0.05997915  0.67536544  0.78630672    -0.80900
O71         O  0.18614501  0.73881338  0.67855614    -0.79200
O72         O  0.00656581  0.66339221  0.73305005    -0.83400
O73         O  0.06327839  0.61157896  0.66486734    -0.78200
O74         O  0.13977561  0.73732860  0.77845565    -0.80000
O75         O  0.11975346  0.73343082  0.60390750    -0.82700
C76         C  0.08776584  0.58876710  0.69298991     0.98000
C77         C  0.01828919  0.66758791  0.77486779     1.05500
O78         O  0.09190252  0.70386432  0.69545412    -1.11700
O79         O  0.05453845  0.79124183  0.65648306    -0.74200
O80         O  0.00114649  0.73906863  0.67253255    -0.77600
O81         O  0.10840678  0.60739540  0.72666390    -0.78300
C82         C  0.01275828  0.78003566  0.66324985     0.96900
O83         O  0.05677065  0.68915999  0.60217779    -0.76300
O84         O  0.11782380  0.79383987  0.73233560    -0.81500
C85         C  0.20594707  0.70295710  0.69431924     0.99600
C86         C  0.13175014  0.77980089  0.77127458     1.05500
O87         O  0.18460450  0.67160461  0.71610262    -0.77100
C88         C  0.09039994  0.70924164  0.58257390     1.03800
Fe89       Fe  0.11914021  0.75739546  0.11947443     1.65800
Fe90       Fe  0.03631427  0.67408234  0.11813862     1.73200
Fe91       Fe  0.12255228  0.67246029  0.03876552     1.54400
O92         O  0.14009470  0.73567187  0.00925172    -0.80900
O93         O  0.06454399  0.60861250  0.12270072    -0.79200
O94         O  0.12048862  0.79173555  0.05677150    -0.83400
O95         O  0.18692621  0.73510439  0.11111762    -0.78200
O96         O  0.06115412  0.67322498  0.00119399    -0.80000
O97         O  0.05595761  0.68548088  0.18562806    -0.82700
C98         C  0.20698775  0.70007794  0.09406315     0.98000
C99         C  0.13323362  0.77816438  0.01723769     1.05500
O100        O  0.09293769  0.70102177  0.09246602    -1.11700
O101        O  0.00201965  0.73589959  0.11501534    -0.74200
O102        O  0.05552715  0.78773836  0.13162443    -0.77600
O103        O  0.18607783  0.66972080  0.07074632    -0.78300
C104        C  0.01380382  0.77667179  0.12471896     0.96900
O105        O  0.11916341  0.72934315  0.18482327    -0.76300
O106        O  0.00791486  0.66078170  0.05464011    -0.81500
C107        C  0.08995589  0.58616217  0.09507383     0.99600
C108        C  0.01944310  0.66557659  0.01284160     1.05500
O109        O  0.11046676  0.60497847  0.06117829    -0.77100
C110        C  0.08908684  0.70547039  0.20576829     1.03800
Fe111      Fe  0.67391721  0.67101577  0.03665164     1.65800
Fe112      Fe  0.75642190  0.66874732  0.12004706     1.73200
Fe113      Fe  0.67244743  0.75133915  0.12214835     1.54400
O114        O  0.66241766  0.78524954  0.05933059    -0.80900
O115        O  0.72625453  0.66297133  0.18486101    -0.79200
O116        O  0.67532640  0.73370598  0.00433141    -0.83400
O117        O  0.60591294  0.68075333  0.05790300    -0.78200
O118        O  0.73455279  0.78491892  0.12662738    -0.80000
O119        O  0.73500272  0.60183100  0.10572845    -0.82700
C120        C  0.58563518  0.70049284  0.09127628     0.98000
C121        C  0.66775762  0.77468803  0.01709242     1.05500
O122        O  0.70054733  0.69676400  0.09334370    -1.11700
O123        O  0.79162718  0.67341344  0.05779069    -0.74200
O124        O  0.73756293  0.65808014  0.00605424    -0.77600
O125        O  0.60666320  0.72468624  0.12066014    -0.78300
C126        C  0.77945379  0.66507941  0.01661155     0.96900
O127        O  0.67103107  0.60551602  0.06335803    -0.76300
O128        O  0.78684288  0.73088292  0.13849681    -0.81500
C129        C  0.69946387  0.68977969  0.20703581     0.99600
C130        C  0.77516232  0.77303667  0.13734979     1.05500
O131        O  0.67947920  0.72430804  0.18856826    -0.77100
C132        C  0.70068678  0.58310096  0.08621733     1.03800
Fe133      Fe  0.12138514  0.12152366  0.03961210     1.65800
Fe134      Fe  0.03668525  0.11865253  0.12081598     1.73200
Fe135      Fe  0.11974989  0.03537254  0.11916935     1.54400
O136        O  0.11907101  0.00306044  0.05603809    -0.80900
O137        O  0.05765473  0.10481384  0.18779593    -0.79200
O138        O  0.13612764  0.05898053  0.00665673    -0.83400
O139        O  0.18586142  0.12300603  0.06936811    -0.78200
O140        O  0.05602340  0.00464460  0.13202385    -0.80000
O141        O  0.06534109  0.18359840  0.12686273    -0.82700
C142        C  0.20726673  0.09277209  0.09257353     0.98000
C143        C  0.12934138  0.01655419  0.01576400     1.05500
O144        O  0.09296914  0.09220027  0.09355881    -1.11700
O145        O  0.00751049  0.13624452  0.05817566    -0.74200
O146        O  0.05981041  0.12223817  0.00466338    -0.77600
O147        O  0.18761737  0.05759660  0.10983222    -0.78300
C148        C  0.01910255  0.13328688  0.01618747     0.96900
O149        O  0.11011155  0.18835635  0.06443624    -0.76300
O150        O  0.00212642  0.05672605  0.11607130    -0.81500
C151        C  0.09219901  0.08566243  0.20672128     0.99600
C152        C  0.01408148  0.01562684  0.12515307     1.05500
O153        O  0.12186348  0.06227149  0.18469335    -0.77100
C154        C  0.09005897  0.20654734  0.09897871     1.03800
Fe155      Fe  0.75657589  0.11929230  0.11966434     1.65800
Fe156      Fe  0.67431536  0.11830102  0.03596558     1.73200
Fe157      Fe  0.67228805  0.03803255  0.12189048     1.54400
O158        O  0.73422707  0.00337908  0.12514579    -0.80900
O159        O  0.60639491  0.10959801  0.05738898    -0.79200
O160        O  0.78602837  0.05709421  0.13858175    -0.83400
O161        O  0.72704930  0.12574615  0.18445493    -0.78200
O162        O  0.66092611  0.00468384  0.05890776    -0.80000
O163        O  0.67215377  0.18379250  0.06268886    -0.82700
C164        C  0.70149893  0.09834990  0.20722384     0.98000
C165        C  0.77462142  0.01507770  0.13665884     1.05500
O166        O  0.70057871  0.09220219  0.09293411    -1.11700
O167        O  0.73815962  0.13017627  0.00552729    -0.74200
O168        O  0.79134353  0.11308968  0.05777331    -0.77600
O169        O  0.68110888  0.06411037  0.18882328    -0.78300
C170        C  0.77974401  0.12192407  0.01656855     0.96900
O171        O  0.73617939  0.18651239  0.10496547    -0.76300
O172        O  0.67468882  0.05564360  0.00337865    -0.81500
C173        C  0.58600828  0.09074502  0.09122659     0.99600
C174        C  0.66638511  0.01487332  0.01649890     1.05500
O175        O  0.60683931  0.06647700  0.12103090    -0.77100
C176        C  0.70192994  0.20573067  0.08559343     1.03800
N177        N  0.89378111  0.96598211  0.13396846    -0.35800
N178        N  0.96491417  0.89598871  0.13078920    -0.56400
N179        N  0.89351440  0.82418072  0.13475346    -0.35800
N180        N  0.82351231  0.89418462  0.14486139    -0.56400
C181        C  0.93239520  0.99085576  0.14255466     0.27800
C182        C  0.85737837  0.99076783  0.14957176     0.27800
C183        C  0.93267321  0.80026768  0.14350701     0.27800
C184        C  0.85774578  0.79829551  0.14989792     0.27800
C185        C  0.98882323  0.93319388  0.11607374     0.36400
C186        C  0.98830212  0.85862044  0.11574802     0.36400
C187        C  0.79592596  0.93163083  0.14956600     0.36400
C188        C  0.79594267  0.85681029  0.14978946     0.36400
C189        C  0.92037329  0.03116805  0.16505402    -0.21100
C190        C  0.87321423  0.03118940  0.16934478    -0.21100
C191        C  0.92167407  0.75944914  0.16587761    -0.21100
C192        C  0.87448029  0.75807589  0.16961850    -0.21100
C193        C  0.02701579  0.91941226  0.09087498    -0.22100
C194        C  0.02660329  0.87219412  0.09052673    -0.22100
C195        C  0.75173566  0.91777182  0.16135405    -0.22100
C196        C  0.75174850  0.87084108  0.16151174    -0.22100
C197        C  0.97762161  0.97907440  0.12789465    -0.17500
C198        C  0.81027937  0.97822183  0.14538196    -0.17500
C199        C  0.81050410  0.81016719  0.14589282    -0.17500
C200        C  0.97734492  0.81279800  0.12808188    -0.17500
H201        H  0.94305530  0.05768087  0.17786737     0.15400
H202        H  0.85335036  0.05742154  0.18684753     0.15400
H203        H  0.94505060  0.73329865  0.17861788     0.15400
H204        H  0.85516186  0.73115182  0.18663417     0.15400
H205        H  0.05222890  0.94088375  0.07384608     0.13700
H206        H  0.05153359  0.85057381  0.07320784     0.13700
H207        H  0.72275847  0.93867099  0.17200649     0.13700
H208        H  0.72280113  0.85010874  0.17232557     0.13700
H209        H  0.89177259  0.93635790  0.11387683     0.27000
H210        H  0.89109519  0.85382493  0.11456480     0.27000
N211        N  0.89097559  0.96882436  0.65645224    -0.35800
N212        N  0.96286257  0.89927883  0.65756136    -0.56400
N213        N  0.89178470  0.82706035  0.65753046    -0.35800
N214        N  0.82074673  0.89666156  0.64997288    -0.56400
C215        C  0.92917916  0.99403088  0.64674164     0.27800
C216        C  0.85400111  0.99343182  0.64199130     0.27800
C217        C  0.93081697  0.80348605  0.64699398     0.27800
C218        C  0.85566645  0.80107897  0.64358625     0.27800
C219        C  0.98650844  0.93667157  0.67195715     0.36400
C220        C  0.98689505  0.86208134  0.67219236     0.36400
C221        C  0.79287976  0.93395699  0.64548053     0.36400
C222        C  0.79327995  0.85909530  0.64622646     0.36400
C223        C  0.91636798  0.03434277  0.62455421    -0.21100
C224        C  0.86908308  0.03400884  0.62159724    -0.21100
C225        C  0.91932533  0.76288840  0.62480051    -0.21100
C226        C  0.87206356  0.76127311  0.62285007    -0.21100
C227        C  0.02510191  0.92310108  0.69654940    -0.22100
C228        C  0.02533871  0.87591430  0.69672562    -0.22100
C229        C  0.74850839  0.91977041  0.63521862    -0.22100
C230        C  0.74872798  0.87292917  0.63570493    -0.22100
C231        C  0.97469960  0.98258121  0.66051193    -0.17500
C232        C  0.80709799  0.98068667  0.64810868    -0.17500
C233        C  0.80838072  0.81250766  0.64921226    -0.17500
C234        C  0.97599841  0.81616189  0.66053288    -0.17500
H235        H  0.93860597  0.06114143  0.61129637     0.15400
H236        H  0.84857583  0.06023007  0.60478354     0.15400
H237        H  0.94242702  0.73712414  0.61084372     0.15400
H238        H  0.85242154  0.73450187  0.60618785     0.15400
H239        H  0.05011820  0.94465795  0.71347284     0.13700
H240        H  0.05063939  0.85450580  0.71374623     0.13700
H241        H  0.71924123  0.94025735  0.62463655     0.13700
H242        H  0.71960893  0.85235908  0.62539858     0.13700
H243        H  0.88975844  0.93933845  0.67665317     0.27000
H244        H  0.88987407  0.85639664  0.67777997     0.27000
N245        N  0.13243968  0.89793234  0.82396248    -0.35800
N246        N  0.13435200  0.96960274  0.89440583    -0.56400
N247        N  0.13453497  0.89704752  0.96491674    -0.35800
N248        N  0.14111046  0.82610070  0.89431845    -0.56400
C249        C  0.14256233  0.93633887  0.79915841     0.27800
C250        C  0.14573499  0.86101704  0.79857802     0.27800
C251        C  0.14584071  0.93519453  0.98937039     0.27800
C252        C  0.14765869  0.85975468  0.99001447     0.27800
C253        C  0.11995075  0.99416784  0.85738270     0.36400
C254        C  0.12160780  0.99381483  0.93217507     0.36400
C255        C  0.13459309  0.79912749  0.85668029     0.36400
C256        C  0.13506680  0.79860840  0.93183685     0.36400
C257        C  0.16384545  0.92353761  0.75832422    -0.21100
C258        C  0.16560354  0.87619074  0.75787215    -0.21100
C259        C  0.16775176  0.92181764  0.02966177    -0.21100
C260        C  0.16859434  0.87440760  0.03019266    -0.21100
C261        C  0.09731794  0.03372420  0.87178172    -0.22100
C262        C  0.09837144  0.03350393  0.91899800    -0.22100
C263        C  0.12586978  0.75444683  0.87082491    -0.22100
C264        C  0.12614153  0.75411448  0.91738134    -0.22100
C265        C  0.12948417  0.98209954  0.81103382    -0.17500
C266        C  0.13770950  0.81406571  0.80996804    -0.17500
C267        C  0.13891629  0.81294953  0.97863953    -0.17500
C268        C  0.13287139  0.98121616  0.97802595    -0.17500
H269        H  0.17692732  0.94581655  0.73145015     0.15400
H270        H  0.18029621  0.85536010  0.73068663     0.15400
H271        H  0.18167852  0.94378375  0.05619848     0.15400
H272        H  0.18344382  0.85319610  0.05702636     0.15400
H273        H  0.08079550  0.05971028  0.85080690     0.13700
H274        H  0.08273476  0.05927377  0.94080773     0.13700
H275        H  0.11868578  0.72391295  0.85130323     0.13700
H276        H  0.11918868  0.72323987  0.93661207     0.13700
H277        H  0.11253245  0.89677310  0.85373021     0.27000
H278        H  0.11397087  0.89638057  0.93568926     0.27000
N279        N  0.89855623  0.13061618  0.82512785    -0.35800
N280        N  0.96941632  0.13979340  0.89552107    -0.56400
N281        N  0.90008492  0.12836057  0.96709418    -0.35800
N282        N  0.82839528  0.12549982  0.89672614    -0.56400
C283        C  0.93415127  0.14737296  0.80002872     0.27800
C284        C  0.85936097  0.13998240  0.80151031     0.27800
C285        C  0.93621314  0.14424233  0.99180261     0.27800
C286        C  0.86132276  0.13760869  0.99162934     0.27800
C287        C  0.99648951  0.14555541  0.85786998     0.36400
C288        C  0.99744343  0.14394762  0.93255503     0.36400
C289        C  0.80425871  0.11134054  0.85959456     0.36400
C290        C  0.80492151  0.11084401  0.93425775     0.36400
C291        C  0.91727057  0.16867410  0.76074967    -0.21100
C292        C  0.87018763  0.16421238  0.76178475    -0.21100
C293        C  0.92003093  0.16476876  0.03177822    -0.21100
C294        C  0.87295603  0.16071711  0.03159295    -0.21100
C295        C  0.04078829  0.15702799  0.87140119    -0.22100
C296        C  0.04141824  0.15590547  0.91819840    -0.22100
C297        C  0.76596884  0.08647210  0.87364586    -0.22100
C298        C  0.76635574  0.08623851  0.92090354    -0.22100
C299        C  0.98142588  0.14312044  0.81144204    -0.17500
C300        C  0.81468675  0.12445826  0.81375115    -0.17500
C301        C  0.81622830  0.12314506  0.97996472    -0.17500
C302        C  0.98333658  0.14032800  0.97924970    -0.17500
H303        H  0.93639895  0.18727594  0.73473885     0.15400
H304        H  0.84676918  0.17806307  0.73633800     0.15400
H305        H  0.93951207  0.18291103  0.05765387     0.15400
H306        H  0.85005930  0.17429086  0.05769723     0.15400
H307        H  0.06937318  0.16860288  0.85052603     0.13700
H308        H  0.07055047  0.16651580  0.93861925     0.13700
H309        H  0.74042433  0.06999247  0.85232941     0.13700
H310        H  0.74119827  0.06957957  0.94272290     0.13700
H311        H  0.90133876  0.10941969  0.85400667     0.27000
H312        H  0.90219143  0.10796799  0.93767647     0.27000
N313        N  0.66056062  0.89389621  0.82609565    -0.35800
N314        N  0.66594830  0.82368577  0.89736418    -0.56400
N315        N  0.66213035  0.89456106  0.96856090    -0.35800
N316        N  0.66296736  0.96455491  0.89732580    -0.56400
C317        C  0.67575845  0.85656130  0.80265045     0.27800
C318        C  0.67402490  0.93177939  0.80245743     0.27800
C319        C  0.67733995  0.85714470  0.99180203     0.27800
C320        C  0.67641829  0.93221192  0.99176916     0.27800
C321        C  0.65324455  0.79862144  0.86023360     0.36400
C322        C  0.65324365  0.79926723  0.93506283     0.36400
C323        C  0.64919376  0.98893037  0.85998309     0.36400
C324        C  0.65056726  0.98936480  0.93484940     0.36400
C325        C  0.70031949  0.87093120  0.76420220    -0.21100
C326        C  0.69917381  0.91840462  0.76405480    -0.21100
C327        C  0.70274116  0.87112415  0.02965394    -0.21100
C328        C  0.70218393  0.91858036  0.02961143    -0.21100
C329        C  0.63134976  0.75865727  0.87447179    -0.22100
C330        C  0.63126091  0.75911091  0.92173924    -0.22100
C331        C  0.62672163  0.02876308  0.87395441    -0.22100
C332        C  0.62766592  0.02907436  0.92127210    -0.22100
C333        C  0.66467973  0.81040999  0.81415213    -0.17500
C334        C  0.66133954  0.97750840  0.81398207    -0.17500
C335        C  0.66363846  0.97792783  0.98056438    -0.17500
C336        C  0.66541012  0.81129773  0.98079396    -0.17500
H337        H  0.71772580  0.84971690  0.73900517     0.15400
H338        H  0.71550239  0.94030586  0.73871725     0.15400
H339        H  0.72017877  0.84963181  0.05461962     0.15400
H340        H  0.71914022  0.94029226  0.05451341     0.15400
H341        H  0.61638611  0.73205502  0.85329604     0.13700
H342        H  0.61632019  0.73285111  0.94356482     0.13700
H343        H  0.61128142  0.05504378  0.85245836     0.13700
H344        H  0.61304108  0.05557540  0.94300573     0.13700
H345        H  0.63785263  0.89348695  0.85398227     0.27000
H346        H  0.63879269  0.89428181  0.94131484     0.27000
N347        N  0.89839105  0.66256420  0.82466449    -0.35800
N348        N  0.97141427  0.65689399  0.89417991    -0.56400
N349        N  0.89871121  0.66365446  0.96542653    -0.35800
N350        N  0.82725395  0.66039916  0.89580989    -0.56400
C351        C  0.93613275  0.64914381  0.80059870     0.27800
C352        C  0.86074456  0.64875351  0.80119026     0.27800
C353        C  0.93658531  0.64924633  0.98860923     0.27800
C354        C  0.86118334  0.65065340  0.98990556     0.27800
C355        C  0.99109996  0.67683388  0.85696775     0.36400
C356        C  0.99145379  0.67631628  0.93126038     0.36400
C357        C  0.80312890  0.67399008  0.85830225     0.36400
C358        C  0.80319906  0.67474007  0.93317747     0.36400
C359        C  0.92220539  0.62479479  0.76202182    -0.21100
C360        C  0.87460763  0.62470540  0.76234716    -0.21100
C361        C  0.92271542  0.62522014  0.02762525    -0.21100
C362        C  0.87517912  0.62642584  0.02856666    -0.21100
C363        C  0.02171359  0.71047549  0.87036903    -0.22100
C364        C  0.02196472  0.71011187  0.91772702    -0.22100
C365        C  0.76410798  0.69812426  0.87199022    -0.22100
C366        C  0.76410523  0.69850258  0.91931106    -0.22100
C367        C  0.98156264  0.66361051  0.81138312    -0.17500
C368        C  0.81495588  0.66174815  0.81242329    -0.17500
C369        C  0.81530144  0.66355508  0.97919525    -0.17500
C370        C  0.98226000  0.66260382  0.97686196    -0.17500
H371        H  0.94362011  0.60870500  0.73612364     0.15400
H372        H  0.85285750  0.60890014  0.73669191     0.15400
H373        H  0.94410533  0.60830791  0.05297914     0.15400
H374        H  0.85354838  0.61097698  0.05471714     0.15400
H375        H  0.03915557  0.73470055  0.84818242     0.13700
H376        H  0.03960736  0.73400149  0.93990645     0.13700
H377        H  0.73855177  0.71448526  0.85045004     0.13700
H378        H  0.73854707  0.71508771  0.94074993     0.13700
H379        H  0.89831824  0.68516529  0.85253388     0.27000
H380        H  0.89864849  0.68607913  0.93730252     0.27000
C381        C  0.44512301  0.10033619  0.09728126     0.17800
C382        C  0.42136072  0.12269564  0.13296004    -0.11300
C383        C  0.37298035  0.12317496  0.13373398    -0.12100
C384        C  0.34798450  0.10125753  0.09883528     0.19400
C385        C  0.37179516  0.07927949  0.06299145    -0.14200
C386        C  0.42008513  0.07879634  0.06222224    -0.12400
C387        C  0.29806649  0.10045573  0.09978804     0.00400
C388        C  0.25644259  0.09780105  0.09816010    -0.32500
C389        C  0.49503156  0.09884995  0.09676567     0.01700
C390        C  0.53667279  0.09615818  0.09516584    -0.34100
H391        H  0.44020327  0.13950138  0.16028882     0.12800
H392        H  0.35512206  0.14033697  0.16164895     0.12600
H393        H  0.35301099  0.06222421  0.03576871     0.12500
H394        H  0.43788932  0.06138292  0.03441960     0.11500
C395        C  0.69277850  0.44276189  0.08821072     0.17800
C396        C  0.72692274  0.41865048  0.06393053    -0.11300
C397        C  0.72729516  0.37046864  0.06406744    -0.12100
C398        C  0.69351546  0.34605979  0.08846710     0.19400
C399        C  0.65897022  0.37013347  0.11224901    -0.14200
C400        C  0.65859870  0.41838234  0.11211404    -0.12400
C401        C  0.69476806  0.29641600  0.08928430     0.00400
C402        C  0.69733528  0.25491519  0.08872247    -0.32500
C403        C  0.69352147  0.49240900  0.08912873     0.01700
C404        C  0.69595377  0.53391240  0.08895810    -0.34100
H405        H  0.75346752  0.43709103  0.04523290     0.12800
H406        H  0.75409786  0.35226104  0.04544046     0.12600
H407        H  0.63258857  0.35164912  0.13112187     0.12500
H408        H  0.63195900  0.43663209  0.13091860     0.11500
C409        C  0.09545361  0.34765717  0.10922158     0.17800
C410        C  0.07768331  0.37181432  0.07133156    -0.11300
C411        C  0.07802880  0.42010816  0.07044618    -0.12100
C412        C  0.09612117  0.44509076  0.10744574     0.19400
C413        C  0.11358779  0.42103361  0.14566591    -0.14200
C414        C  0.11324912  0.37255581  0.14655089    -0.12400
C415        C  0.09637238  0.49518507  0.10570015     0.00400
C416        C  0.09469706  0.53683813  0.10176629    -0.32500
C417        C  0.09556281  0.29753553  0.10904176     0.01700
C418        C  0.09425508  0.25583194  0.10585260    -0.34100
H419        H  0.06369778  0.35327012  0.04226161     0.12800
H420        H  0.06425395  0.43800121  0.04073505     0.14600
H421        H  0.12756314  0.43968502  0.17466582     0.12500
H422        H  0.12701977  0.35455356  0.17619255     0.11500
C423        C  0.44470588  0.69516831  0.09910881     0.17800
C424        C  0.41951446  0.69838536  0.05811938    -0.11300
C425        C  0.37124297  0.69815788  0.05914999    -0.12100
C426        C  0.34765677  0.69472351  0.10117844     0.19400
C427        C  0.37279462  0.69186533  0.14225404    -0.14200
C428        C  0.42114579  0.69209196  0.14122203    -0.12400
C429        C  0.29779277  0.69458258  0.10182756     0.00400
C430        C  0.25614765  0.69578230  0.09989685    -0.32500
C431        C  0.49458400  0.69527059  0.09773316     0.01700
C432        C  0.53623226  0.69640529  0.09533349    -0.34100
H433        H  0.43718942  0.70100922  0.02534453     0.12800
H434        H  0.35230916  0.70062850  0.02715190     0.12600
H435        H  0.35506101  0.68943280  0.17500762     0.12500
H436        H  0.44011959  0.68981191  0.17320252     0.11500
C437        C  0.09220868  0.70163927  0.34602392     0.17800
C438        C  0.12983483  0.68293517  0.36978082    -0.11300
C439        C  0.13074995  0.68369698  0.41787744    -0.12100
C440        C  0.09402194  0.70317153  0.44249436     0.19400
C441        C  0.05630136  0.72186844  0.41876278    -0.14200
C442        C  0.05538697  0.72110901  0.37062236    -0.12400
C443        C  0.09498931  0.70402225  0.49202528     0.00400
C444        C  0.09433492  0.70552893  0.53348855    -0.32500
C445        C  0.09182530  0.70137649  0.29647336     0.01700
C446        C  0.09153753  0.70214345  0.25498002    -0.34100
H447        H  0.15850788  0.66789146  0.35111826     0.12800
H448        H  0.16008387  0.66917557  0.43584228     0.12600
H449        H  0.02770405  0.73704888  0.43744458     0.12500
H450        H  0.02612879  0.73577006  0.35263238     0.11500
C451        C  0.10107815  0.09470690  0.34657669     0.17800
C452        C  0.07358507  0.12671513  0.37013866    -0.11300
C453        C  0.07336591  0.12751999  0.41828486    -0.12100
C454        C  0.10064634  0.09632859  0.44315702     0.19400
C455        C  0.12842636  0.06456021  0.41959234    -0.14200
C456        C  0.12864518  0.06375498  0.37143836    -0.12400
C457        C  0.09890151  0.09585652  0.49274004     0.00400
C458        C  0.09596777  0.09405297  0.53414305    -0.32500
C459        C  0.09985248  0.09267514  0.29703551     0.01700
C460        C  0.09730906  0.09004613  0.25567860    -0.34100
H461        H  0.05198039  0.15069056  0.35131823     0.12800
H462        H  0.05158408  0.15209521  0.43609453     0.12600
H463        H  0.14950405  0.04012804  0.43842329     0.12500
H464        H  0.14989920  0.03872341  0.35363028     0.11500
C465        C  0.09547123  0.35017504  0.68137720     0.17800
C466        C  0.12200589  0.37447713  0.71343088    -0.11300
C467        C  0.12131375  0.42280602  0.71410043    -0.12100
C468        C  0.09409095  0.44754058  0.68271110     0.19400
C469        C  0.06764562  0.42327554  0.65047404    -0.14200
C470        C  0.06833505  0.37486660  0.64980712    -0.12400
C471        C  0.09277924  0.49758476  0.68432554     0.00400
C472        C  0.09128461  0.53928721  0.68728570    -0.32500
C473        C  0.09497844  0.30011217  0.68214651     0.01700
C474        C  0.09339593  0.25841977  0.68509648    -0.34100
H475        H  0.14296500  0.35604526  0.73821952     0.12800
H476        H  0.14181255  0.44088634  0.73934486     0.12600
H477        H  0.04626978  0.44173896  0.62606767     0.12500
H478        H  0.04741967  0.35672530  0.62494979     0.11500
C479        C  0.69648384  0.11195268  0.34854633     0.17800
C480        C  0.66533902  0.14037418  0.37247495    -0.11300
C481        C  0.66456517  0.14070833  0.42093688    -0.12100
C482        C  0.69493467  0.11263264  0.44620570     0.19400
C483        C  0.72676124  0.08508184  0.42222684    -0.14200
C484        C  0.72753347  0.08474861  0.37386334    -0.12400
C485        C  0.69304749  0.11103209  0.49642868     0.00400
C486        C  0.69328720  0.10747043  0.53821898    -0.32500
C487        C  0.69601196  0.10953422  0.29834188     0.01700
C488        C  0.69697798  0.10542890  0.25662916    -0.34100
H489        H  0.64120663  0.16182070  0.35370191     0.12800
H490        H  0.63986361  0.16241879  0.43865761     0.12600
H491        H  0.75066085  0.06331255  0.44093999     0.12500
H492        H  0.75199956  0.06271687  0.35620027     0.11500
C493        C  0.34567614  0.10222416  0.69249239     0.17800
C494        C  0.36897065  0.14305305  0.70348617    -0.11300
C495        C  0.41732726  0.14369527  0.70529908    -0.12100
C496        C  0.44271250  0.10349771  0.69614903     0.19400
C497        C  0.41935726  0.06283699  0.68501256    -0.14200
C498        C  0.37113445  0.06219692  0.68320391    -0.12400
C499        C  0.49254651  0.10326718  0.69883499     0.00400
C500        C  0.53409435  0.10013718  0.70138427    -0.32500
C501        C  0.29578809  0.10074050  0.69198510     0.01700
C502        C  0.25416704  0.09787778  0.69323354    -0.34100
H503        H  0.34978887  0.17423299  0.71096178     0.12800
H504        H  0.43484417  0.17536783  0.71408730     0.12600
H505        H  0.43844545  0.03148986  0.67799535     0.12500
H506        H  0.35368266  0.03035909  0.67487984     0.11500
C507        C  0.68704128  0.68116917  0.44510191     0.17800
C508        C  0.66416716  0.64592910  0.42125397    -0.11300
C509        C  0.66456421  0.64494656  0.37279683    -0.12100
C510        C  0.68785611  0.67919474  0.34766596     0.19400
C511        C  0.71047190  0.71437905  0.37160916    -0.14200
C512        C  0.71007319  0.71535963  0.41985751    -0.12400
C513        C  0.68915103  0.67876990  0.29755131     0.00400
C514        C  0.69263619  0.68188912  0.25594940    -0.32500
C515        C  0.68772153  0.68247622  0.49522469     0.01700
C516        C  0.69081137  0.68605261  0.53680229    -0.34100
H517        H  0.64619336  0.61916700  0.44005912     0.12800
H518        H  0.64686009  0.61746845  0.35500875     0.12600
H519        H  0.72861959  0.74111683  0.35292313     0.12500
H520        H  0.72795208  0.74281306  0.43751958     0.11500
C521        C  0.34669543  0.69431007  0.68968892     0.17800
C522        C  0.37336252  0.70647260  0.65124376    -0.11300
C523        C  0.42163516  0.70530776  0.65366998    -0.12100
C524        C  0.44363903  0.69198018  0.69454662     0.19400
C525        C  0.41694902  0.67978921  0.73294639    -0.14200
C526        C  0.36872102  0.68094846  0.73052106    -0.12400
C527        C  0.49344770  0.69188174  0.69744287     0.00400
C528        C  0.53504140  0.69351048  0.70023758    -0.32500
C529        C  0.29687379  0.69631307  0.68782411     0.01700
C530        C  0.25521662  0.69864106  0.68891979    -0.34100
H531        H  0.35687880  0.71706631  0.61951941     0.12800
H532        H  0.44177965  0.71504307  0.62377820     0.12600
H533        H  0.43340471  0.66964193  0.76483154     0.12500
H534        H  0.34860383  0.67165400  0.76057459     0.11500
C535        C  0.69221559  0.34692712  0.70390096     0.17800
C536        C  0.73420974  0.37060620  0.70341559    -0.11300
C537        C  0.73464367  0.41870462  0.70155229    -0.12100
C538        C  0.69308217  0.44335127  0.70014644     0.19400
C539        C  0.65104761  0.41969497  0.70086478    -0.14200
C540        C  0.65061346  0.37153375  0.70272568    -0.12400
C541        C  0.69378423  0.49288038  0.69891136     0.00400
C542        C  0.69595658  0.53432098  0.69969222    -0.32500
C543        C  0.69209230  0.29743765  0.70558257     0.01700
C544        C  0.69399114  0.25601876  0.70728454    -0.34100
H545        H  0.76656723  0.35189594  0.70445886     0.12800
H546        H  0.76733174  0.43666230  0.70128272     0.12600
H547        H  0.61871366  0.43844366  0.70005913     0.12500
H548        H  0.61795546  0.35353362  0.70323181     0.11500
loop_ 
_geom_bond_atom_site_label_1 
_geom_bond_atom_site_label_2 
_geom_bond_distance 
_geom_bond_site_symmetry_2 
_ccdc_geom_bond_type 
Fe1          O17   2.092       .  S
Fe1           O7   2.064       .  S
Fe1          O14   2.057       .  S
Fe1           O6   2.090       .  S
Fe1          O12   1.970       .  S
Fe2           O5   2.077       .  S
Fe2           O9   2.081       .  S
Fe2          O13   2.076       .  S
Fe2          O18   2.077       .  S
Fe2          O12   1.978       .  S
Fe3          O21   2.057       .  S
Fe3           O8   2.072       .  S
Fe3          O15   2.080       .  S
Fe3           O4   2.061       .  S
Fe3          O12   1.977       .  S
O4           C11   1.268       .  A
O5           C19   1.270       .  A
O6           C11   1.274       .  A
O7           C10   1.266       .  A
O8           C20   1.269       .  A
O9           C22   1.272       .  A
C10          O15   1.269       .  A
C10         C528   1.443       .  S
C11         C333   1.504       .  S
O13          C16   1.268       .  A
O14          C16   1.266       .  A
C16         C233   1.513       .  S
O17          C22   1.274       .  A
O18          C20   1.271       .  A
C19          O21   1.267       .  A
C19         C542   1.434       .  S
C20         C368   1.500       .  S
C22         C516   1.454       .  S
Fe23         O39   2.077       .  S
Fe23         O29   2.074       .  S
Fe23         O36   2.066       .  S
Fe23         O28   2.070       .  S
Fe23         O34   1.972       .  S
Fe24         O27   2.070       .  S
Fe24         O31   2.102       .  S
Fe24         O35   2.059       .  S
Fe24         O40   2.100       .  S
Fe24         O34   1.965       .  S
Fe25         O43   2.080       .  S
Fe25         O30   2.053       .  S
Fe25         O37   2.054       .  S
Fe25         O26   2.076       .  S
Fe25         O34   1.975       .  S
O26          C33   1.270       .  A
O27          C41   1.269       .  A
O28          C33   1.270       .  A
O29          C32   1.269       .  A
O30          C42   1.266       .  A
O31          C44   1.276       .  A
C32          O37   1.266       .  A
C32         C544   1.432       .  S
C33         C300   1.500       .  S
O35          C38   1.268       .  A
O36          C38   1.266       .  A
C38         C232   1.508   1_545  S
O39          C44   1.272       .  A
O40          C42   1.275       .  A
C41          O43   1.270       .  A
C41         C500   1.444       .  S
C42         C334   1.502   1_545  S
C44         C486   1.457       .  S
Fe45         O61   2.060       .  S
Fe45         O51   2.091       .  S
Fe45         O58   2.085       .  S
Fe45         O50   2.066       .  S
Fe45         O56   1.966       .  S
Fe46         O49   2.071       .  S
Fe46         O53   2.082       .  S
Fe46         O57   2.070   1_455  S
Fe46         O62   2.078       .  S
Fe46         O56   1.971       .  S
Fe47         O65   2.093       .  S
Fe47         O52   2.050       .  S
Fe47         O59   2.060       .  S
Fe47         O48   2.096       .  S
Fe47         O56   1.963       .  S
O48          C55   1.275       .  A
O49          C63   1.270       .  A
O50          C55   1.270       .  A
O51          C54   1.272       .  A
O52          C64   1.266       .  A
O53          C66   1.271       .  A
C54          O59   1.266       .  A
C54         C502   1.444       .  S
C55         C265   1.508   1_545  S
O57          C60   1.269   1_655  A
O58          C60   1.272       .  A
C60         C231   1.503   1_445  S
O61          C66   1.268       .  A
O62          C64   1.270       .  A
C63          O65   1.273       .  A
C63         C474   1.449       .  S
C64         C299   1.507   1_455  S
C66         C458   1.437       .  S
Fe67         O83   2.077       .  S
Fe67         O73   2.071       .  S
Fe67         O80   2.053       .  S
Fe67         O72   2.069       .  S
Fe67         O78   1.964       .  S
Fe68         O71   2.088       .  S
Fe68         O75   2.063       .  S
Fe68         O79   2.079       .  S
Fe68         O84   2.070       .  S
Fe68         O78   1.971       .  S
Fe69         O87   2.065       .  S
Fe69         O74   2.090       .  S
Fe69         O81   2.090       .  S
Fe69         O70   2.087       .  S
Fe69         O78   1.962       .  S
O70          C77   1.276       .  A
O71          C85   1.272       .  A
O72          C77   1.269       .  A
O73          C76   1.268       .  A
O74          C86   1.271       .  A
O75          C88   1.269       .  A
C76          O81   1.271       .  A
C76         C472   1.450       .  S
C77         C367   1.507   1_455  S
O79          C82   1.271       .  A
O80          C82   1.265       .  A
C82         C234   1.496   1_455  S
O83          C88   1.271       .  A
O84          C86   1.269       .  A
C85          O87   1.269       .  A
C85         C530   1.443       .  S
C86         C266   1.514       .  S
C88         C444   1.435       .  S
Fe89        O105   2.065       .  S
Fe89         O95   2.082       .  S
Fe89        O102   2.072       .  S
Fe89         O94   2.076       .  S
Fe89        O100   1.972       .  S
Fe90         O93   2.071       .  S
Fe90         O97   2.072       .  S
Fe90        O101   2.051       .  S
Fe90        O106   2.061       .  S
Fe90        O100   1.966       .  S
Fe91        O109   2.093       .  S
Fe91         O96   2.092       .  S
Fe91        O103   2.067       .  S
Fe91         O92   2.088       .  S
Fe91        O100   1.964       .  S
O92          C99   1.271       .  A
O93         C107   1.269       .  A
O94          C99   1.270       .  A
O95          C98   1.271       .  A
O96         C108   1.276       .  A
O97         C110   1.269       .  A
C98         O103   1.270       .  A
C98         C430   1.442       .  S
C99         C267   1.517   1_554  S
O101        C104   1.266       .  A
O102        C104   1.270       .  A
C104        C200   1.491   1_455  S
O105        C110   1.269       .  A
O106        C108   1.267       .  A
C107        O109   1.273       .  A
C107        C416   1.451       .  S
C108        C370   1.507   1_454  S
C110        C446   1.435       .  S
Fe111       O127   2.054       .  S
Fe111       O117   2.084       .  S
Fe111       O124   2.081       .  S
Fe111       O116   2.047       .  S
Fe111       O122   1.972       .  S
Fe112       O115   2.082       .  S
Fe112       O119   2.085       .  S
Fe112       O123   2.080       .  S
Fe112       O128   2.083       .  S
Fe112       O122   1.972       .  S
Fe113       O131   2.093       .  S
Fe113       O118   2.056       .  S
Fe113       O125   2.062       .  S
Fe113       O114   2.093       .  S
Fe113       O122   1.968       .  S
O114        C121   1.275       .  A
O115        C129   1.273       .  A
O116        C121   1.266       .  A
O117        C120   1.270       .  A
O118        C130   1.266       .  A
O119        C132   1.271       .  A
C120        O125   1.266       .  A
C120        C432   1.443       .  S
C121        C336   1.497   1_554  S
O123        C126   1.273       .  A
O124        C126   1.271       .  A
C126        C369   1.504   1_554  S
O127        C132   1.266       .  A
O128        C130   1.269       .  A
C129        O131   1.275       .  A
C129        C514   1.453       .  S
C130        C199   1.511       .  S
C132        C404   1.437       .  S
Fe133       O149   2.096       .  S
Fe133       O139   2.063       .  S
Fe133       O146   2.057       .  S
Fe133       O138   2.097       .  S
Fe133       O144   1.963       .  S
Fe134       O137   2.079       .  S
Fe134       O141   2.071       .  S
Fe134       O145   2.072       .  S
Fe134       O150   2.066       .  S
Fe134       O144   1.968       .  S
Fe135       O153   2.061       .  S
Fe135       O140   2.088       .  S
Fe135       O147   2.091       .  S
Fe135       O136   2.063       .  S
Fe135       O144   1.967       .  S
O136        C143   1.269       .  A
O137        C151   1.270       .  A
O138        C143   1.275       .  A
O139        C142   1.268       .  A
O140        C152   1.273       .  A
O141        C154   1.270       .  A
C142        O147   1.272       .  A
C142        C388   1.444       .  S
C143        C268   1.507   1_544  S
O145        C148   1.268       .  A
O146        C148   1.267       .  A
C148        C302   1.508   1_454  S
O149        C154   1.274       .  A
O150        C152   1.269       .  A
C151        O153   1.268       .  A
C151        C460   1.437       .  S
C152        C197   1.502   1_445  S
C154        C418   1.451       .  S
Fe155       O171   2.081       .  S
Fe155       O161   2.076       .  S
Fe155       O168   2.068       .  S
Fe155       O160   2.069       .  S
Fe155       O166   1.969       .  S
Fe156       O159   2.081       .  S
Fe156       O163   2.056       .  S
Fe156       O167   2.080       .  S
Fe156       O172   2.053       .  S
Fe156       O166   1.973       .  S
Fe157       O175   2.068       .  S
Fe157       O162   2.100       .  S
Fe157       O169   2.106       .  S
Fe157       O158   2.059       .  S
Fe157       O166   1.963       .  S
O158        C165   1.267       .  A
O159        C173   1.270       .  A
O160        C165   1.266       .  A
O161        C164   1.272       .  A
O162        C174   1.277       .  A
O163        C176   1.266       .  A
C164        O169   1.277       .  A
C164        C488   1.457       .  S
C165        C198   1.508   1_545  S
O167        C170   1.271       .  A
O168        C170   1.270       .  A
C170        C301   1.499   1_554  S
O171        C176   1.270       .  A
O172        C174   1.266       .  A
C173        O175   1.269       .  A
C173        C390   1.444       .  S
C174        C335   1.501   1_544  S
C176        C402   1.437       .  S
N177        C182   1.354       .  A
N177        C181   1.359       .  A
N177        H209   1.043       .  S
N178        C185   1.353       .  A
N178        C186   1.351       .  A
N179        C184   1.355       .  A
N179        C183   1.354       .  A
N179        H210   1.043       .  S
N180        C187   1.355       .  A
N180        C188   1.357       .  A
C181        C189   1.385   1_565  A
C181        C197   1.420       .  A
C182        C198   1.421       .  A
C182        C190   1.388   1_565  A
C183        C191   1.388       .  A
C183        C200   1.418       .  A
C184        C199   1.417       .  A
C184        C192   1.387       .  A
C185        C197   1.413       .  A
C185        C193   1.385   1_655  A
C186        C200   1.414       .  A
C186        C194   1.387   1_655  A
C187        C195   1.387       .  A
C187        C198   1.421       .  A
C188        C196   1.386       .  A
C188        C199   1.422       .  A
C189        C190   1.373       .  A
C189        H201   1.082       .  S
C190        H202   1.081       .  S
C191        C192   1.374       .  A
C191        H203   1.082       .  S
C192        H204   1.081       .  S
C193        C194   1.371       .  A
C193        H205   1.081       .  S
C194        H206   1.081       .  S
C195        C196   1.362       .  A
C195        H207   1.080       .  S
C196        H208   1.080       .  S
N211        C216   1.354       .  A
N211        C215   1.359       .  A
N211        H243   1.038       .  S
N212        C219   1.354       .  A
N212        C220   1.352       .  A
N213        C218   1.356       .  A
N213        C217   1.356       .  A
N213        H244   1.038       .  S
N214        C221   1.356       .  A
N214        C222   1.357       .  A
C215        C223   1.385   1_565  A
C215        C231   1.419       .  A
C216        C232   1.422       .  A
C216        C224   1.389   1_565  A
C217        C225   1.387       .  A
C217        C234   1.419       .  A
C218        C233   1.420       .  A
C218        C226   1.387       .  A
C219        C231   1.414       .  A
C219        C227   1.386   1_655  A
C220        C234   1.413       .  A
C220        C228   1.386   1_655  A
C221        C229   1.386       .  A
C221        C232   1.421       .  A
C222        C230   1.387       .  A
C222        C233   1.423       .  A
C223        C224   1.375       .  A
C223        H235   1.082       .  S
C224        H236   1.081       .  S
C225        C226   1.373       .  A
C225        H237   1.082       .  S
C226        H238   1.081       .  S
C227        C228   1.370       .  A
C227        H239   1.080       .  S
C228        H240   1.080       .  S
C229        C230   1.360       .  A
C229        H241   1.080       .  S
C230        H242   1.079       .  S
N245        C250   1.357       .  A
N245        C249   1.359       .  A
N245        H277   1.040       .  S
N246        C253   1.356       .  A
N246        C254   1.355       .  A
N247        C252   1.358       .  A
N247        C251   1.359       .  A
N247        H278   1.040       .  S
N248        C255   1.361       .  A
N248        C256   1.361       .  A
C249        C257   1.388       .  A
C249        C265   1.424       .  A
C250        C266   1.422       .  A
C250        C258   1.386       .  A
C251        C259   1.388   1_556  A
C251        C268   1.425       .  A
C252        C267   1.423       .  A
C252        C260   1.386   1_556  A
C253        C265   1.419       .  A
C253        C261   1.386   1_565  A
C254        C268   1.420       .  A
C254        C262   1.387   1_565  A
C255        C263   1.384       .  A
C255        C266   1.427       .  A
C256        C264   1.385       .  A
C256        C267   1.428       .  A
C257        C258   1.375       .  A
C257        H269   1.082       .  S
C258        H270   1.082       .  S
C259        C260   1.377       .  A
C259        H271   1.082       .  S
C260        H272   1.082       .  S
C261        C262   1.373       .  A
C261        H273   1.081       .  S
C262        H274   1.080       .  S
C263        C264   1.353       .  A
C263        H275   1.075       .  S
C264        H276   1.075       .  S
N279        C284   1.356       .  A
N279        C283   1.354       .  A
N279        H311   1.043       .  S
N280        C287   1.356       .  A
N280        C288   1.356       .  A
N281        C286   1.357       .  A
N281        C285   1.355       .  A
N281        H312   1.043       .  S
N282        C289   1.353       .  A
N282        C290   1.353       .  A
C283        C291   1.387       .  A
C283        C299   1.417       .  A
C284        C300   1.418       .  A
C284        C292   1.387       .  A
C285        C293   1.387   1_556  A
C285        C302   1.418       .  A
C286        C301   1.417       .  A
C286        C294   1.386   1_556  A
C287        C299   1.422       .  A
C287        C295   1.387   1_655  A
C288        C302   1.420       .  A
C288        C296   1.386   1_655  A
C289        C297   1.387       .  A
C289        C300   1.417       .  A
C290        C298   1.386       .  A
C290        C301   1.416       .  A
C291        C292   1.373       .  A
C291        H303   1.081       .  S
C292        H304   1.082       .  S
C293        C294   1.371       .  A
C293        H305   1.081       .  S
C294        H306   1.082       .  S
C295        C296   1.361       .  A
C295        H307   1.080       .  S
C296        H308   1.080       .  S
C297        C298   1.374       .  A
C297        H309   1.081       .  S
C298        H310   1.080       .  S
N313        C318   1.353       .  A
N313        C317   1.354       .  A
N313        H345   1.043       .  S
N314        C321   1.356       .  A
N314        C322   1.355       .  A
N315        C320   1.353       .  A
N315        C319   1.351       .  A
N315        H346   1.043       .  S
N316        C323   1.355       .  A
N316        C324   1.356       .  A
C317        C325   1.388       .  A
C317        C333   1.418       .  A
C318        C334   1.417       .  A
C318        C326   1.388       .  A
C319        C327   1.388   1_556  A
C319        C336   1.414       .  A
C320        C335   1.414       .  A
C320        C328   1.388   1_556  A
C321        C333   1.420       .  A
C321        C329   1.386       .  A
C322        C336   1.421       .  A
C322        C330   1.387       .  A
C323        C331   1.387   1_565  A
C323        C334   1.422       .  A
C324        C332   1.386   1_565  A
C324        C335   1.421       .  A
C325        C326   1.379       .  A
C325        H337   1.081       .  S
C326        H338   1.081       .  S
C327        C328   1.378       .  A
C327        H339   1.081       .  S
C328        H340   1.081       .  S
C329        C330   1.374       .  A
C329        H341   1.081       .  S
C330        H342   1.082       .  S
C331        C332   1.376       .  A
C331        H343   1.082       .  S
C332        H344   1.082       .  S
N347        C352   1.352       .  A
N347        C351   1.355       .  A
N347        H379   1.044       .  S
N348        C355   1.352       .  A
N348        C356   1.351       .  A
N349        C354   1.353       .  A
N349        C353   1.355       .  A
N349        H380   1.044       .  S
N350        C357   1.354       .  A
N350        C358   1.355       .  A
C351        C359   1.389       .  A
C351        C367   1.420       .  A
C352        C368   1.417       .  A
C352        C360   1.387       .  A
C353        C361   1.389   1_556  A
C353        C370   1.422       .  A
C354        C369   1.417       .  A
C354        C362   1.385   1_556  A
C355        C367   1.409       .  A
C355        C363   1.380   1_655  A
C356        C370   1.408       .  A
C356        C364   1.379   1_655  A
C357        C365   1.387       .  A
C357        C368   1.422       .  A
C358        C366   1.386       .  A
C358        C369   1.420       .  A
C359        C360   1.381       .  A
C359        H371   1.081       .  S
C360        H372   1.082       .  S
C361        C362   1.380       .  A
C361        H373   1.081       .  S
C362        H374   1.082       .  S
C363        C364   1.377       .  A
C363        H375   1.079       .  S
C364        H376   1.079       .  S
C365        C366   1.376       .  A
C365        H377   1.080       .  S
C366        H378   1.080       .  S
C381        C389   1.448       .  S
C381        C382   1.403       .  A
C381        C386   1.402       .  A
C382        C383   1.404       .  A
C382        H391   1.083       .  S
C383        C384   1.403       .  A
C383        H392   1.083       .  S
C384        C387   1.449       .  S
C384        C385   1.402       .  A
C385        C386   1.401       .  A
C385        H393   1.083       .  S
C386        H394   1.083       .  S
C387        C388   1.211       .  T
C389        C390   1.211       .  T
C395        C403   1.442       .  S
C395        C396   1.401       .  A
C395        C400   1.402       .  A
C396        C397   1.399       .  A
C396        H405   1.084       .  S
C397        C398   1.401       .  A
C397        H406   1.084       .  S
C398        C401   1.442       .  S
C398        C399   1.402       .  A
C399        C400   1.401       .  A
C399        H407   1.083       .  S
C400        H408   1.083       .  S
C401        C402   1.207       .  T
C403        C404   1.207       .  T
C409        C417   1.455       .  S
C409        C410   1.403       .  A
C409        C414   1.405       .  A
C410        C411   1.402       .  A
C410        H419   1.083       .  S
C411        C412   1.403       .  A
C411        H420   1.083       .  S
C412        C415   1.455       .  S
C412        C413   1.406       .  A
C413        C414   1.408       .  A
C413        H421   1.083       .  S
C414        H422   1.083       .  S
C415        C416   1.215       .  T
C417        C418   1.215       .  T
C423        C431   1.447       .  S
C423        C424   1.402       .  A
C423        C428   1.403       .  A
C424        C425   1.401       .  A
C424        H433   1.083       .  S
C425        C426   1.402       .  A
C425        H434   1.083       .  S
C426        C429   1.447       .  S
C426        C427   1.403       .  A
C427        C428   1.403       .  A
C427        H435   1.083       .  S
C428        H436   1.083       .  S
C429        C430   1.210       .  T
C431        C432   1.211       .  T
C437        C445   1.440       .  S
C437        C438   1.401       .  A
C437        C442   1.402       .  A
C438        C439   1.399       .  A
C438        H447   1.083       .  S
C439        C440   1.401       .  A
C439        H448   1.083       .  S
C440        C443   1.440       .  S
C440        C441   1.402       .  A
C441        C442   1.400       .  A
C441        H449   1.084       .  S
C442        H450   1.084       .  S
C443        C444   1.206       .  T
C445        C446   1.206       .  T
C451        C459   1.442       .  S
C451        C452   1.402       .  A
C451        C456   1.402       .  A
C452        C453   1.400       .  A
C452        H461   1.083       .  S
C453        C454   1.402       .  A
C453        H462   1.083       .  S
C454        C457   1.442       .  S
C454        C455   1.402       .  A
C455        C456   1.400       .  A
C455        H463   1.083       .  S
C456        H464   1.083       .  S
C457        C458   1.207       .  T
C459        C460   1.207       .  T
C465        C473   1.454       .  S
C465        C466   1.403       .  A
C465        C470   1.405       .  A
C466        C467   1.403       .  A
C466        H475   1.083       .  S
C467        C468   1.403       .  A
C467        H476   1.083       .  S
C468        C471   1.454       .  S
C468        C469   1.405       .  A
C469        C470   1.406       .  A
C469        H477   1.083       .  S
C470        H478   1.083       .  S
C471        C472   1.215       .  T
C473        C474   1.214       .  T
C479        C487   1.461       .  S
C479        C480   1.406       .  A
C479        C484   1.405       .  A
C480        C481   1.409       .  A
C480        H489   1.083       .  S
C481        C482   1.406       .  A
C481        H490   1.083       .  S
C482        C485   1.461       .  S
C482        C483   1.405       .  A
C483        C484   1.406       .  A
C483        H491   1.083       .  S
C484        H492   1.083       .  S
C485        C486   1.219       .  T
C487        C488   1.219       .  T
C493        C501   1.448       .  S
C493        C494   1.404       .  A
C493        C498   1.401       .  A
C494        C495   1.404       .  A
C494        H503   1.083       .  S
C495        C496   1.404       .  A
C495        H504   1.083       .  S
C496        C499   1.448       .  S
C496        C497   1.402       .  A
C497        C498   1.400       .  A
C497        H505   1.083       .  S
C498        H506   1.083       .  S
C499        C500   1.211       .  T
C501        C502   1.211       .  T
C507        C515   1.458       .  S
C507        C508   1.406       .  A
C507        C512   1.403       .  A
C508        C509   1.409       .  A
C508        H517   1.083       .  S
C509        C510   1.406       .  A
C509        H518   1.083       .  S
C510        C513   1.457       .  S
C510        C511   1.403       .  A
C511        C512   1.403       .  A
C511        H519   1.083       .  S
C512        H520   1.083       .  S
C513        C514   1.216       .  T
C515        C516   1.217       .  T
C521        C529   1.447       .  S
C521        C522   1.403       .  A
C521        C526   1.403       .  A
C522        C523   1.403       .  A
C522        H531   1.083       .  S
C523        C524   1.403       .  A
C523        H532   1.083       .  S
C524        C527   1.448       .  S
C524        C525   1.402       .  A
C525        C526   1.401       .  A
C525        H533   1.083       .  S
C526        H534   1.083       .  S
C527        C528   1.211       .  T
C529        C530   1.211       .  T
C535        C543   1.437       .  S
C535        C536   1.401       .  A
C535        C540   1.401       .  A
C536        C537   1.397       .  A
C536        H545   1.084       .  S
C537        C538   1.401       .  A
C537        H546   1.084       .  S
C538        C541   1.438       .  S
C538        C539   1.401       .  A
C539        C540   1.399       .  A
C539        H547   1.083       .  S
C540        H548   1.083       .  S
C541        C542   1.205       .  T
C543        C544   1.204       .  T
