geometry optimzed in LAMMPS
_audit_creation_date              2020-12-01 
_audit_creation_method            'lammps2cif' 
_symmetry_space_group_name_H-M    'P1' 
_symmetry_Int_Tables_number       1 
_symmetry_cell_setting            triclinic 
loop_ 
_symmetry_equiv_pos_as_xyz 
  x,y,z 
_cell_length_a                    37.96637198 
_cell_length_b                    37.74888109120151 
_cell_length_c                    33.6813539342081 
_cell_angle_alpha                 89.94621565855851 
_cell_angle_beta                  90.05622062757159 
_cell_angle_gamma                 122.39277564148803 
loop_ 
_atom_site_label 
_atom_site_type_symbol 
_atom_site_fract_x 
_atom_site_fract_y 
_atom_site_fract_z 
_atom_site_charge 
C1          C  0.57265279  0.86033350  0.00266136     0.03800
C2          C  0.56717531  0.87483574  0.03904983    -0.12400
C3          C  0.56216279  0.90885627  0.04005349     0.01300
C4          C  0.56125322  0.92785684  0.33811427    -0.10900
C5          C  0.56519208  0.91260668  0.30172248     0.03800
C6          C  0.57153475  0.87940787  0.30061290    -0.10300
H7          H  0.56701537  0.85986742  0.06659131     0.09400
H8          H  0.55664206  0.95383206  0.33896309     0.06900
H9          H  0.57556516  0.86851848  0.27223824     0.06700
C10         C  0.32084077  0.84891347  0.00233557     0.03800
C11         C  0.34233372  0.86763601  0.30024462    -0.12400
C12         C  0.38422813  0.90037396  0.30121541     0.01300
C13         C  0.40474929  0.91514449  0.00426795    -0.10900
C14         C  0.38324921  0.89729370  0.03970688     0.03800
C15         C  0.34138787  0.86430534  0.03881692    -0.10300
H16         H  0.32682424  0.85590098  0.27187253     0.09400
H17         H  0.43744594  0.94010103  0.33832663     0.06900
H18         H  0.32531792  0.84976157  0.06637980     0.06700
C19         C  0.40743079  0.91669564  0.26420576     0.43100
N20         N  0.43620831  0.95496969  0.21313130     0.02000
C21         C  0.58987817  0.96432556  0.09623818    -0.05900
H22         H  0.62402319  0.98975378  0.25215389     0.07500
C23         C  0.61654650  0.11484744  0.24211928    -0.06200
Co24       Co  0.48991800  0.93158915  0.17076287     0.74200
N25         N  0.57125926  0.97067013  0.21347122    -0.25400
Co26       Co  0.59254706  0.01587890  0.16910260     0.74100
C27         C  0.64277695  0.10252596  0.26117517     0.43200
N28         N  0.51715932  0.07970501  0.21069667     0.01600
N29         N  0.61301257  0.06283717  0.21125730     0.01700
N30         N  0.52281450  0.90924728  0.09857895    -0.46300
H31         H  0.43807218  0.87901496  0.25363054     0.07500
N32         N  0.53223743  0.93845101  0.21409901     0.02000
N33         N  0.61215436  0.06119824  0.12495280     0.01700
C34         C  0.64188925  0.10022306  0.07450339     0.43300
N35         N  0.47820961  0.04741231  0.21161921    -0.24900
C36         C  0.43073371  0.89998329  0.09715153    -0.05800
N37         N  0.41080496  0.94866499  0.24301370    -0.46000
N38         N  0.63798843  0.06786387  0.09539986    -0.46200
C39         C  0.40492639  0.91254893  0.07754833     0.43100
N40         N  0.53126549  0.93612567  0.12775672     0.02000
N41         N  0.47778195  0.04648957  0.12435024    -0.24900
N42         N  0.44954372  0.92906168  0.21382091    -0.25400
N43         N  0.51676599  0.07879105  0.12486953     0.01600
H44         H  0.42615888  0.02934933  0.08457425     0.07500
H45         H  0.61105590  0.13777622  0.08502912     0.07600
N46         N  0.57019024  0.96851055  0.12702959    -0.25400
N47         N  0.59954104  0.08860877  0.21122140    -0.25000
N48         N  0.43567846  0.95336680  0.12660213     0.02000
C49         C  0.56041941  0.92978116  0.26482677     0.43400
C50         C  0.45910934  0.05137133  0.24322874    -0.06300
N51         N  0.59895636  0.08721988  0.12446197    -0.25000
H52         H  0.61132177  0.13944228  0.25007132     0.07500
N53         N  0.52437917  0.91305617  0.24451503    -0.46300
H54         H  0.42709522  0.02967671  0.25210397     0.07500
C55         C  0.49004038  0.09039994  0.07464134     0.43200
C56         C  0.43291825  0.90356324  0.24522204    -0.05800
Co57       Co  0.45594546  0.00043060  0.16883259     0.73800
N58         N  0.52604626  0.10647957  0.23997578    -0.46000
C59         C  0.55854347  0.92502898  0.07796359     0.43500
N60         N  0.40976357  0.94602735  0.09694098    -0.46000
Co61       Co  0.55850212  0.08449859  0.16780847     0.73900
C62         C  0.61595964  0.11301914  0.09326515    -0.06300
C63         C  0.59159601  0.96790921  0.24467322    -0.05900
N64         N  0.44851421  0.92703475  0.12736517    -0.25400
N65         N  0.63892077  0.06997980  0.24084662    -0.46200
H66         H  0.62202819  0.98603347  0.08780279     0.07500
C67         C  0.45840928  0.05074211  0.09295882    -0.06300
Cl68       Cl  0.52418027  0.00806131  0.16902770    -0.49300
C69         C  0.49093447  0.09063620  0.26150313     0.43300
H70         H  0.43539224  0.87486672  0.08984527     0.07500
N71         N  0.52533881  0.10576476  0.09578647    -0.46000
C72         C  0.49927280  0.17008138  0.33405067     0.03800
C73         C  0.49678528  0.14981756  0.29838120    -0.12400
C74         C  0.48873566  0.10910258  0.29865744     0.01300
C75         C  0.48332732  0.08827708  0.33468382    -0.10900
C76         C  0.48809413  0.10909634  0.03722652     0.03800
C77         C  0.49626037  0.15005597  0.03688686    -0.10300
H78         H  0.50096328  0.16571222  0.27031015     0.09400
H79         H  0.47851881  0.05724288  0.33482215     0.06900
H80         H  0.49945481  0.16592327  0.06470706     0.06700
C81         C  0.73005218  0.15965263  0.00164287     0.03800
C82         C  0.70831517  0.14574366  0.29888456    -0.12400
C83         C  0.66504484  0.11767248  0.29871832     0.01300
C84         C  0.64319102  0.10321102  0.00116084    -0.10900
C85         C  0.66476757  0.11584756  0.03720329     0.03800
C86         C  0.70809363  0.14375474  0.03747961    -0.10300
H87         H  0.72479266  0.15769721  0.27097362     0.09400
H88         H  0.60961854  0.08153916  0.33426472     0.06900
H89         H  0.72457349  0.15378174  0.06557846     0.06700
C90         C  0.08241889  0.61930027  0.25824382     0.43100
N91         N  0.08272521  0.58557669  0.20758501     0.02000
C92         C  0.91937702  0.44341193  0.09002213    -0.05900
H93         H  0.90192353  0.41058833  0.24748932     0.07500
C94         C  0.02020154  0.39440173  0.23963421    -0.06200
Co95       Co  0.00124260  0.54038510  0.16478029     0.74200
N96         N  0.94423971  0.46083200  0.20804161    -0.25400
Co97       Co  0.96088653  0.43341864  0.16457614     0.74100
C98         C  0.97851052  0.37223130  0.25737142     0.43200
N99         N  0.10294168  0.49112828  0.20734690     0.01600
N100        N  0.97900730  0.40699328  0.20708460     0.01700
N101        N  0.94525723  0.51324602  0.09168517    -0.46300
H102        H  0.01338544  0.59699894  0.24901509     0.07500
N103        N  0.95909229  0.50146244  0.20770966     0.02000
N104        N  0.97933385  0.40780730  0.12143728     0.01700
C105        C  0.97987657  0.37514388  0.06999838     0.43300
N106        N  0.11801561  0.53181172  0.20790795    -0.24900
C107        C  0.04061583  0.59733794  0.08926862    -0.05800
N108        N  0.10646722  0.61041489  0.23659528    -0.46000
N109        N  0.95575870  0.38358724  0.09206758    -0.46200
C110        C  0.08183683  0.61878770  0.07091813     0.43100
N111        N  0.95915527  0.50155366  0.12172634     0.02000
N112        N  0.11777885  0.53222096  0.12092856    -0.24900
N113        N  0.04446315  0.57785248  0.20850820    -0.25400
N114        N  0.10273014  0.49155150  0.12126053     0.01600
H115        H  0.16006180  0.58227822  0.08120295     0.07500
H116        H  0.04878563  0.39705113  0.07931810     0.07600
N117        N  0.94435489  0.46095742  0.12150694    -0.25400
N118        N  0.01721372  0.41462143  0.20810903    -0.25000
N119        N  0.08249772  0.58564165  0.12193378     0.02000
C120        C  0.91911177  0.47819823  0.25806234     0.43400
C121        C  0.14387182  0.54886766  0.23901956    -0.06300
N122        N  0.01755762  0.41552817  0.12040613    -0.25000
H123        H  0.04769583  0.39459931  0.24853952     0.07500
N124        N  0.94474911  0.51323929  0.23724618    -0.46300
H125        H  0.16096375  0.58165011  0.24739735     0.07500
C126        C  0.14238086  0.51445855  0.07050264     0.43200
C127        C  0.04101916  0.59746446  0.24018700    -0.05800
Co128      Co  0.10115933  0.55963070  0.16463259     0.73800
N129        N  0.11750685  0.47901898  0.23649478    -0.46000
C130        C  0.92020564  0.47809955  0.07072444     0.43500
N131        N  0.10600200  0.61010482  0.09265684    -0.46000
Co132      Co  0.06058288  0.45259412  0.16433680     0.73900
C133        C  0.02113768  0.39646974  0.08830666    -0.06300
C134        C  0.91878139  0.44341208  0.23928648    -0.05900
N135        N  0.04425765  0.57795052  0.12108963    -0.25400
N136        N  0.95493924  0.38176324  0.23572577    -0.46200
H137        H  0.90278799  0.41061522  0.08182140     0.07500
C138        C  0.14310381  0.54945845  0.08947563    -0.06300
Cl139      Cl  0.03099398  0.49654375  0.16467343    -0.49300
C140        C  0.14373150  0.51383548  0.25733646     0.43300
H141        H  0.01291900  0.59678231  0.08042367     0.07500
N142        N  0.11675171  0.47959818  0.09156020    -0.46000
C143        C  0.21111732  0.50259006  0.99860669     0.03800
C144        C  0.19427359  0.50489828  0.29561790    -0.12400
C145        C  0.16262478  0.51346023  0.29496313     0.01300
C146        C  0.14724639  0.51910825  0.33053825    -0.10900
C147        C  0.16225850  0.51442652  0.03346758     0.03800
C148        C  0.19401332  0.50614179  0.03416638    -0.10300
H149        H  0.20665263  0.50143086  0.26791283     0.09400
H150        H  0.12215506  0.52484829  0.33001903     0.06900
H151        H  0.20572904  0.50287151  0.06242236     0.06700
C152        C  0.90364518  0.29486241  0.99888576     0.03800
C153        C  0.92324021  0.31260440  0.29588473    -0.12400
C154        C  0.96363377  0.34883686  0.29480380     0.01300
C155        C  0.98486570  0.36716108  0.99710464    -0.10900
C156        C  0.96475861  0.35038497  0.03348245     0.03800
C157        C  0.92485061  0.31386890  0.03416478    -0.10300
H158        H  0.90609245  0.29973682  0.26843304     0.09400
H159        H  0.01460619  0.39685618  0.99649211     0.06900
H160        H  0.90940543  0.30141104  0.06241155     0.06700
C161        C  0.85448067  0.49291833  0.99883359     0.03800
C162        C  0.86962279  0.48690811  0.03439150    -0.12400
C163        C  0.90019819  0.47723743  0.03378380     0.01300
C164        C  0.91459971  0.47145078  0.33106087    -0.10900
C165        C  0.89996393  0.47799254  0.29545677     0.03800
C166        C  0.87037177  0.48918261  0.29596865    -0.10300
H167        H  0.85809105  0.49028102  0.06267699     0.09400
H168        H  0.93904378  0.46475581  0.33073078     0.06900
H169        H  0.86036306  0.49573336  0.26825378     0.06700
C170        C  0.15553726  0.69948091  0.99836807     0.03800
C171        C  0.13606650  0.68052132  0.29572871    -0.12400
C172        C  0.09684258  0.64301590  0.29535160     0.01300
C173        C  0.07628130  0.62475241  0.99788368    -0.10900
C174        C  0.09640524  0.64274610  0.03397520     0.03800
C175        C  0.13572119  0.68006041  0.03403066    -0.10300
H176        H  0.15189987  0.69431145  0.26792095     0.09400
H177        H  0.04714844  0.59445494  0.99772565     0.06900
H178        H  0.15180884  0.69296084  0.06196675     0.06700
C179        C  0.51116235  0.40521472  0.07331046     0.43100
N180        N  0.53958005  0.44389722  0.12426113     0.02000
C181        C  0.46437057  0.53938000  0.24171407    -0.05900
H182        H  0.47120786  0.57195365  0.08775972     0.07500
C183        C  0.62493285  0.63803653  0.09395443    -0.06200
Co184      Co  0.48212669  0.46233282  0.16711116     0.74200
N185        N  0.48074653  0.53106392  0.12486234    -0.25400
Co186      Co  0.52301300  0.56935367  0.16847555     0.74100
C187        C  0.59543186  0.64610794  0.07517345     0.43200
N188        N  0.63959971  0.56089941  0.12496186     0.01600
N189        N  0.56628385  0.60732218  0.12575700     0.01700
N190        N  0.43854569  0.46956458  0.24092371    -0.46300
H191        H  0.44993189  0.40287926  0.08279726     0.07500
N192        N  0.46548870  0.49036160  0.12383185     0.02000
N193        N  0.56607679  0.60670501  0.21193191     0.01700
C194        C  0.59569189  0.64588118  0.26235613     0.43300
N195        N  0.62433177  0.52021246  0.12560364    -0.24900
C196        C  0.47973117  0.41142486  0.24142912    -0.05800
N197        N  0.54648174  0.42510019  0.09490682    -0.46000
N198        N  0.55981545  0.62569852  0.24152447    -0.46200
C199        C  0.50915207  0.40309219  0.26014145     0.43100
N200        N  0.46474279  0.48920246  0.21106457     0.02000
N201        N  0.62362591  0.51973166  0.21138149    -0.24900
N202        N  0.50176736  0.43738510  0.12329854    -0.25400
N203        N  0.63905090  0.56046922  0.21192423     0.01600
H204        H  0.63182029  0.47892132  0.24985317     0.07500
H205        H  0.65687605  0.64867092  0.25140423     0.07600
N206        N  0.48045336  0.53001625  0.21116385    -0.25400
N207        N  0.60413086  0.61395495  0.12531513    -0.25000
N208        N  0.53865620  0.44296782  0.21025053     0.02000
C209        C  0.43738429  0.50139609  0.07431362     0.43400
C210        C  0.63991295  0.51033736  0.09517848    -0.06300
N211        N  0.60400300  0.61353570  0.21211695    -0.25000
H212        H  0.65662968  0.64867454  0.08561303     0.07500
N213        N  0.43964530  0.47136477  0.09361971    -0.46300
H214        H  0.63284994  0.47929989  0.08780323     0.07500
C215        C  0.66499893  0.54949495  0.26276348     0.43200
C216        C  0.48153355  0.41354847  0.09156545    -0.05800
Co217      Co  0.58197036  0.48116574  0.16792916     0.73800
N218        N  0.66478841  0.58002711  0.09440348    -0.46000
C219        C  0.43670228  0.49940653  0.26109013     0.43500
N220        N  0.54502224  0.42370618  0.23951938    -0.46000
Co221      Co  0.62278127  0.58814972  0.16852963     0.73900
C222        C  0.62502726  0.63776365  0.24336641    -0.06300
C223        C  0.46452833  0.54095284  0.09469630    -0.05900
N224        N  0.50072477  0.43613040  0.21042266    -0.25400
N225        N  0.55978333  0.62617527  0.09621157    -0.46200
H226        H  0.47141045  0.57031937  0.24948231     0.07500
C227        C  0.63884448  0.50991466  0.24229137    -0.06300
Cl228      Cl  0.55242866  0.52523276  0.16802057    -0.49300
C229        C  0.66622123  0.54976787  0.07474421     0.43300
H230        H  0.44791336  0.40047949  0.24957202     0.07500
N231        N  0.66394328  0.57966423  0.24262352    -0.46000
C232        C  0.50668072  0.32705751  0.00042865     0.03800
C233        C  0.50799197  0.34669051  0.03632149    -0.12400
C234        C  0.50662591  0.38309933  0.03614275     0.01300
C235        C  0.50411862  0.40008842  0.00009833    -0.10900
C236        C  0.50469875  0.38170761  0.29760598     0.03800
C237        C  0.50597723  0.34538548  0.29778018    -0.10300
H238        H  0.50944558  0.33339176  0.06433336     0.09400
H239        H  0.50432965  0.42893582  0.99986527     0.06900
H240        H  0.50693336  0.33165959  0.26984862     0.06700
C241        C  0.35942137  0.49522522  0.00058345     0.03800
C242        C  0.37768381  0.49409869  0.29807638    -0.12400
C243        C  0.41417066  0.49332252  0.29826716     0.01300
C244        C  0.43243953  0.49331282  0.00108197    -0.10900
C245        C  0.41510645  0.49556947  0.03695042     0.03800
C246        C  0.37874416  0.49656886  0.03666413    -0.10300
H247        H  0.36429600  0.49526339  0.27000455     0.09400
H248        H  0.46144369  0.49417783  0.00122671     0.06900
H249        H  0.36559818  0.49853834  0.06452231     0.06700
C250        C  0.73427546  0.54079207  0.00121863     0.03800
C251        C  0.71828048  0.54447744  0.03726157    -0.12400
C252        C  0.68805089  0.55475897  0.03775315     0.01300
C253        C  0.67292009  0.56062445  0.00205483    -0.10900
C254        C  0.68776199  0.55525281  0.29931716     0.03800
C255        C  0.71906279  0.54651998  0.29892859    -0.10300
H256        H  0.72793953  0.53745425  0.06495802     0.09400
H257        H  0.64707342  0.56521922  0.00232951     0.06900
H258        H  0.73027657  0.54244702  0.27076033     0.06700
C259        C  0.59399665  0.72003494  0.00186764     0.03800
C260        C  0.59668295  0.70271377  0.29935334    -0.12400
C261        C  0.60079763  0.66806556  0.29948061     0.01300
C262        C  0.60397172  0.65146859  0.00215606    -0.10900
C263        C  0.60005826  0.66783092  0.03796049     0.03800
C264        C  0.59469006  0.70166625  0.03778733    -0.10300
H265        H  0.59510839  0.71578485  0.27124947     0.09400
H266        H  0.60596897  0.62385731  0.00228872     0.06900
H267        H  0.59014570  0.71305601  0.06564038     0.06700
C268        C  0.82878694  0.53671738  0.02536952     0.24200
C269        C  0.82346698  0.50485241  0.99965539    -0.23900
C270        C  0.78826455  0.48437144  0.30819706     0.19100
C271        C  0.75890332  0.49567751  0.30900225     0.24200
C272        C  0.76473962  0.52816574  0.00078167    -0.23800
C273        C  0.79974962  0.54839641  0.02575950     0.19100
F274        F  0.80640870  0.58023066  0.04989264    -0.13800
F275        F  0.86268249  0.55743197  0.04941100    -0.16100
F276        F  0.72421058  0.47403890  0.28606713    -0.16100
F277        F  0.78170015  0.45263700  0.28396204    -0.13800
C278        C  0.28552632  0.46639699  0.31249365     0.24200
C279        C  0.32114374  0.49665064  0.00024955    -0.23900
C280        C  0.31999644  0.52835623  0.02094262     0.19100
C281        C  0.28403226  0.52984455  0.02049695     0.24200
C282        C  0.24838729  0.49955720  0.99959384    -0.23800
C283        C  0.24932290  0.46767239  0.31236910     0.19100
F284        F  0.21494720  0.43729786  0.29291032    -0.13800
F285        F  0.28555684  0.43510962  0.29267196    -0.16100
F286        F  0.28443220  0.56176733  0.03952227    -0.16100
F287        F  0.35418369  0.55876678  0.04058237    -0.13800
C288        C  0.80379973  0.19014029  0.31173421     0.24200
C289        C  0.77489935  0.19313108  0.00196443    -0.23900
C290        C  0.78869077  0.22944043  0.02475465     0.19100
C291        C  0.83042494  0.26233880  0.02376518     0.24200
C292        C  0.85944794  0.25949096  0.00020770    -0.23800
C293        C  0.84578078  0.22299864  0.31101587     0.19100
F294        F  0.87326254  0.21888013  0.28890024    -0.13800
F295        F  0.79151244  0.15515491  0.28990105    -0.16100
F296        F  0.84209417  0.29763852  0.04484469    -0.16100
F297        F  0.76134119  0.23380397  0.04686799    -0.13800
C298        C  0.47361617  0.21520296  0.31121756     0.24200
C299        C  0.50272087  0.21103001  0.99983466    -0.23900
C300        C  0.53402498  0.24567583  0.02125026     0.19100
C301        C  0.53550504  0.28356511  0.02145005     0.24200
C302        C  0.50575634  0.28734202  0.00018005    -0.23800
C303        C  0.47499314  0.25287415  0.97819301     0.19100
F304        F  0.44539381  0.25524418  0.29121830    -0.13800
F305        F  0.44296160  0.18228118  0.29031753    -0.16100
F306        F  0.56653920  0.31685613  0.04163762    -0.16100
F307        F  0.56371545  0.24312615  0.04113521    -0.13800
C308        C  0.20600072  0.77224957  0.02274589     0.24200
C309        C  0.19772394  0.73801277  0.99893413    -0.23900
C310        C  0.23015984  0.74056336  0.30969271     0.19100
C311        C  0.27003775  0.77678175  0.31075792     0.24200
C312        C  0.27824211  0.81114137  0.00097029    -0.23800
C313        C  0.24593056  0.80856928  0.02372095     0.19100
F314        F  0.25280256  0.84149696  0.04626576    -0.13800
F315        F  0.17514974  0.77077869  0.04450639    -0.16100
F316        F  0.30107152  0.77778048  0.28973582    -0.16100
F317        F  0.22367012  0.70749358  0.28760450    -0.13800
C318        C  0.55996155  0.75682075  0.97606517     0.24200
C319        C  0.58879155  0.75614809  0.00182888    -0.23900
C320        C  0.61260704  0.79023372  0.02759869     0.19100
C321        C  0.60768487  0.82429093  0.02755512     0.24200
C322        C  0.57887331  0.82492795  0.00175120    -0.23800
C323        C  0.55533928  0.79104933  0.97576821     0.19100
F324        F  0.52677667  0.79035140  0.28427178    -0.13800
F325        F  0.53509491  0.72366186  0.28543453    -0.16100
F326        F  0.63181140  0.85710932  0.05215609    -0.16100
F327        F  0.64131195  0.79103684  0.05231953    -0.13800
C328        C  0.57264978  0.86033109  0.33599429     0.03800
C329        C  0.56717201  0.87483322  0.37238271    -0.12400
C330        C  0.56215951  0.90885377  0.37338625     0.01300
C331        C  0.56125511  0.92785870  0.67144775    -0.10900
C332        C  0.56519160  0.91260655  0.63505613     0.03800
C333        C  0.57153271  0.87940669  0.63394702    -0.10300
H334        H  0.56701220  0.85986502  0.39992422     0.09400
H335        H  0.55664515  0.95383465  0.67229622     0.06900
H336        H  0.57556163  0.86851596  0.60557246     0.06700
C337        C  0.32084204  0.84891172  0.33566924     0.03800
C338        C  0.34233342  0.86764141  0.63357749    -0.12400
C339        C  0.38422886  0.90037656  0.63454921     0.01300
C340        C  0.40474878  0.91514662  0.33760045    -0.10900
C341        C  0.38324957  0.89729548  0.37303968     0.03800
C342        C  0.34138902  0.86430527  0.37215033    -0.10300
H343        H  0.32682349  0.85591048  0.60520486     0.09400
H344        H  0.43744765  0.94009814  0.67166134     0.06900
H345        H  0.32531969  0.84976164  0.39971330     0.06700
C346        C  0.40743207  0.91669841  0.59753993     0.43100
N347        N  0.43620851  0.95497089  0.54646443     0.02000
C348        C  0.58987625  0.96432333  0.42957083    -0.05900
H349        H  0.62402261  0.98975228  0.58548648     0.07500
C350        C  0.61654731  0.11484610  0.57545265    -0.06200
Co351      Co  0.48991716  0.93158884  0.50409624     0.74200
N352        N  0.57125850  0.97066873  0.54680419    -0.25400
Co353      Co  0.59254679  0.01587735  0.50243559     0.74100
C354        C  0.64277705  0.10252393  0.59450875     0.43200
N355        N  0.51716096  0.07970553  0.54402998     0.01600
N356        N  0.61301302  0.06283574  0.54459043     0.01700
N357        N  0.52281216  0.90924589  0.43191201    -0.46300
H358        H  0.43807265  0.87901684  0.58696524     0.07500
N359        N  0.53223647  0.93845001  0.54743236     0.02000
N360        N  0.61215485  0.06119682  0.45828587     0.01700
C361        C  0.64189094  0.10022216  0.40783704     0.43300
N362        N  0.47821101  0.04741328  0.54495217    -0.24900
C363        C  0.43073318  0.89998413  0.43048462    -0.05800
N364        N  0.41080582  0.94866714  0.57634710    -0.46000
N365        N  0.63798905  0.06786227  0.42873308    -0.46200
C366        C  0.40492720  0.91255104  0.41088087     0.43100
N367        N  0.53126398  0.93612433  0.46108993     0.02000
N368        N  0.47778373  0.04649089  0.45768343    -0.24900
N369        N  0.44954363  0.92906258  0.54715441    -0.25400
N370        N  0.51676801  0.07879194  0.45820268     0.01600
H371        H  0.42616062  0.02935158  0.41790790     0.07500
H372        H  0.61105878  0.13777638  0.41836302     0.07600
N373        N  0.57018896  0.96850877  0.46036259    -0.25400
N374        N  0.59954198  0.08860774  0.54455458    -0.25000
N375        N  0.43567901  0.95336814  0.45993511     0.02000
C376        C  0.56041858  0.92978047  0.59816023     0.43400
C377        C  0.45911067  0.05137238  0.57656154    -0.06300
N378        N  0.59895770  0.08721915  0.45779526    -0.25000
H379        H  0.61132287  0.13944119  0.58340475     0.07500
N380        N  0.52437814  0.91305554  0.57784873    -0.46300
H381        H  0.42709632  0.02967807  0.58543642     0.07500
C382        C  0.49004265  0.09040149  0.40797473     0.43200
C383        C  0.43291875  0.90356515  0.57855619    -0.05800
Co384      Co  0.45594645  0.00043179  0.50216560     0.73800
N385        N  0.52604802  0.10647985  0.57330938    -0.46000
C386        C  0.55854082  0.92502698  0.41129632     0.43500
N387        N  0.40976484  0.94602962  0.43027355    -0.46000
Co388      Co  0.55850365  0.08449854  0.50114169     0.73900
C389        C  0.61596175  0.11301876  0.42659878    -0.06300
C390        C  0.59159531  0.96790793  0.57800616    -0.05900
N391        N  0.44851379  0.92703530  0.46069844    -0.25400
N392        N  0.63892080  0.06997780  0.57418004    -0.46200
H393        H  0.62202615  0.98603084  0.42113512     0.07500
C394        C  0.45841121  0.05074391  0.42629223    -0.06300
Cl395      Cl  0.52418065  0.00806114  0.50236078    -0.49300
C396        C  0.49093599  0.09063670  0.59483641     0.43300
H397        H  0.43539105  0.87486711  0.42317840     0.07500
N398        N  0.52534114  0.10576583  0.42911969    -0.46000
C399        C  0.49927233  0.17008068  0.66738444     0.03800
C400        C  0.49678673  0.14981789  0.63171487    -0.12400
C401        C  0.48873659  0.10910274  0.63199072     0.01300
C402        C  0.48332572  0.08827591  0.66801685    -0.10900
C403        C  0.48809626  0.10909787  0.37055997     0.03800
C404        C  0.49626127  0.15005702  0.37022037    -0.10300
H405        H  0.50096633  0.16571343  0.60364400     0.09400
H406        H  0.47851685  0.05724169  0.66815494     0.06900
H407        H  0.49945566  0.16592428  0.39804063     0.06700
C408        C  0.73005336  0.15965192  0.33497601     0.03800
C409        C  0.70831529  0.14574150  0.63221807    -0.12400
C410        C  0.66504495  0.11767059  0.63205187     0.01300
C411        C  0.64319228  0.10320944  0.33449450    -0.10900
C412        C  0.66476906  0.11584632  0.37053680     0.03800
C413        C  0.70809508  0.14375378  0.37081285    -0.10300
H414        H  0.72479291  0.15769407  0.60430707     0.09400
H415        H  0.60961846  0.08153907  0.66759825     0.06900
H416        H  0.72457509  0.15378080  0.39891164     0.06700
C417        C  0.08241626  0.61930114  0.59157616     0.43100
N418        N  0.08272314  0.58557664  0.54091838     0.02000
C419        C  0.91937588  0.44341046  0.42335511    -0.05900
H420        H  0.90192402  0.41058756  0.58082294     0.07500
C421        C  0.02020164  0.39440194  0.57296730    -0.06200
Co422      Co  0.00124093  0.54038422  0.49811298     0.74200
N423        N  0.94423880  0.46083097  0.54137433    -0.25400
Co424      Co  0.96088619  0.43341804  0.49790883     0.74100
C425        C  0.97851037  0.37223102  0.59070414     0.43200
N426        N  0.10294142  0.49112917  0.54068007     0.01600
N427        N  0.97900731  0.40699305  0.54041727     0.01700
N428        N  0.94525525  0.51324437  0.42501807    -0.46300
H429        H  0.01338279  0.59699892  0.58234680     0.07500
N430        N  0.95909086  0.50146126  0.54104217     0.02000
N431        N  0.97933428  0.40780734  0.45477004     0.01700
C432        C  0.97987763  0.37514385  0.40333148     0.43300
N433        N  0.11801476  0.53181250  0.54124158    -0.24900
C434        C  0.04061447  0.59733783  0.42260163    -0.05800
N435        N  0.10646493  0.61041560  0.56992839    -0.46000
N436        N  0.95575938  0.38358695  0.42540037    -0.46200
C437        C  0.08183593  0.61878860  0.40425196     0.43100
N438        N  0.95915394  0.50155245  0.45505900     0.02000
N439        N  0.11777847  0.53222219  0.45426207    -0.24900
N440        N  0.04446096  0.57785203  0.54184108    -0.25400
N441        N  0.10273025  0.49155280  0.45459382     0.01600
H442        H  0.16006121  0.58227988  0.41453678     0.07500
H443        H  0.04878680  0.39705192  0.41265160     0.07600
N444        N  0.94435400  0.46095628  0.45483967    -0.25400
N445        N  0.01721383  0.41462159  0.54144198    -0.25000
N446        N  0.08249641  0.58564196  0.45526732     0.02000
C447        C  0.91911154  0.47819728  0.59139564     0.43400
C448        C  0.14387077  0.54886829  0.57235336    -0.06300
N449        N  0.01755820  0.41552866  0.45373911    -0.25000
H450        H  0.04769594  0.39459987  0.58187291     0.07500
N451        N  0.94474805  0.51323815  0.57057899    -0.46300
H452        H  0.16096238  0.58165075  0.58073153     0.07500
C453        C  0.14238131  0.51446060  0.40383613     0.43200
C454        C  0.04101652  0.59746445  0.57351933    -0.05800
Co455      Co  0.10115816  0.55963124  0.49796616     0.73800
N456        N  0.11750690  0.47901990  0.56982764    -0.46000
C457        C  0.92020370  0.47809772  0.40405756     0.43500
N458        N  0.10600102  0.61010587  0.42599094    -0.46000
Co459      Co  0.06058305  0.45259487  0.49766990     0.73900
C460        C  0.02113872  0.39647026  0.42163984    -0.06300
C461        C  0.91878115  0.44341110  0.57261971    -0.05900
N462        N  0.04425609  0.57795015  0.45442257    -0.25400
N463        N  0.95493911  0.38176274  0.56905826    -0.46200
H464        H  0.90278701  0.41061365  0.41515453     0.07500
C465        C  0.14310358  0.54946012  0.42280925    -0.06300
Cl466      Cl  0.03099323  0.49654371  0.49800643    -0.49300
C467        C  0.14373105  0.51383620  0.59066975     0.43300
H468        H  0.01291760  0.59678191  0.41375636     0.07500
N469        N  0.11675234  0.47960002  0.42489351    -0.46000
C470        C  0.21111881  0.50259316  0.33194053     0.03800
C471        C  0.19427263  0.50489757  0.62895042    -0.12400
C472        C  0.16262440  0.51346041  0.62829618     0.01300
C473        C  0.14724599  0.51910784  0.66387158    -0.10900
C474        C  0.16225939  0.51442904  0.36680110     0.03800
C475        C  0.19401485  0.50614520  0.36750017    -0.10300
H476        H  0.20665166  0.50143063  0.60124528     0.09400
H477        H  0.12215521  0.52484864  0.66335273     0.06900
H478        H  0.20573080  0.50287548  0.39575612     0.06700
C479        C  0.90364658  0.29486219  0.33221896     0.03800
C480        C  0.92324000  0.31260416  0.62921749    -0.12400
C481        C  0.96363345  0.34883688  0.62813670     0.01300
C482        C  0.98486713  0.36716098  0.33043789    -0.10900
C483        C  0.96476005  0.35038476  0.36681565     0.03800
C484        C  0.92485218  0.31386851  0.36749796    -0.10300
H485        H  0.90609268  0.29973609  0.60176581     0.09400
H486        H  0.01460760  0.39685620  0.32982541     0.06900
H487        H  0.90940717  0.30141044  0.39574481     0.06700
C488        C  0.85447942  0.49291699  0.33216631     0.03800
C489        C  0.86962092  0.48690615  0.36772432    -0.12400
C490        C  0.90019621  0.47723534  0.36711688     0.01300
C491        C  0.91460044  0.47145127  0.66439437    -0.10900
C492        C  0.89996400  0.47799195  0.62879015     0.03800
C493        C  0.87037194  0.48918216  0.62930184    -0.10300
H494        H  0.85808890  0.49027892  0.39600976     0.09400
H495        H  0.93904459  0.46475643  0.66406438     0.06900
H496        H  0.86036315  0.49573255  0.60158687     0.06700
C497        C  0.15553875  0.69947966  0.33170224     0.03800
C498        C  0.13606230  0.68052364  0.62906028    -0.12400
C499        C  0.09683957  0.64301689  0.62868385     0.01300
C500        C  0.07628122  0.62475313  0.33121731    -0.10900
C501        C  0.09640482  0.64274684  0.36730899     0.03800
C502        C  0.13572134  0.68006039  0.36736468    -0.10300
H503        H  0.15189291  0.69431564  0.60125182     0.09400
H504        H  0.04714780  0.59445632  0.33105920     0.06900
H505        H  0.15180854  0.69296109  0.39530097     0.06700
C506        C  0.51116221  0.40521573  0.40664409     0.43100
N507        N  0.53958018  0.44389804  0.45759478     0.02000
C508        C  0.46437071  0.53938126  0.57504723    -0.05900
H509        H  0.47120848  0.57195445  0.42109238     0.07500
C510        C  0.62493376  0.63803733  0.42728811    -0.06200
Co511      Co  0.48212707  0.46233390  0.50044489     0.74200
N512        N  0.48074703  0.53106492  0.45819555    -0.25400
Co513      Co  0.52301346  0.56935479  0.50180875     0.74100
C514        C  0.59543305  0.64610877  0.40850670     0.43200
N515        N  0.63960006  0.56090017  0.45829553     0.01600
N516        N  0.56628452  0.60732311  0.45909022     0.01700
N517        N  0.43854613  0.46956591  0.57425720    -0.46300
H518        H  0.44993192  0.40288053  0.41613118     0.07500
N519        N  0.46548909  0.49036254  0.45716539     0.02000
N520        N  0.56607715  0.60670628  0.54526510     0.01700
C521        C  0.59569202  0.64588242  0.59568940     0.43300
N522        N  0.62433201  0.52021322  0.45893729    -0.24900
C523        C  0.47973118  0.41142523  0.57476257    -0.05800
N524        N  0.54648171  0.42510108  0.42824032    -0.46000
N525        N  0.55981576  0.62569995  0.57485744    -0.46200
C526        C  0.50915189  0.40309196  0.59347451     0.43100
N527        N  0.46474329  0.48920375  0.54439812     0.02000
N528        N  0.62362595  0.51973246  0.54471519    -0.24900
N529        N  0.50176752  0.43738604  0.45663236    -0.25400
N530        N  0.63905096  0.56046999  0.54525792     0.01600
H531        H  0.63182012  0.47892197  0.58318688     0.07500
H532        H  0.65687602  0.64867162  0.58473812     0.07600
N533        N  0.48045369  0.53001752  0.54449717    -0.25400
N534        N  0.60413157  0.61395587  0.45864870    -0.25000
N535        N  0.53865632  0.44296846  0.54358414     0.02000
C536        C  0.43738479  0.50139673  0.40764687     0.43400
C537        C  0.63991310  0.51033805  0.42851211    -0.06300
N538        N  0.60400324  0.61353665  0.54545049    -0.25000
H539        H  0.65663083  0.64867530  0.41894692     0.07500
N540        N  0.43964570  0.47136553  0.42695332    -0.46300
H541        H  0.63285002  0.47930053  0.42113690     0.07500
C542        C  0.66499892  0.54949566  0.59609711     0.43200
C543        C  0.48153356  0.41354952  0.42489929    -0.05800
Co544      Co  0.58197054  0.48116651  0.50126281     0.73800
N545        N  0.66478874  0.58002780  0.42773708    -0.46000
C546        C  0.43670241  0.49940780  0.59442336     0.43500
N547        N  0.54502211  0.42370614  0.57285257    -0.46000
Co548      Co  0.62278162  0.58815058  0.50186330     0.73900
C549        C  0.62502733  0.63776453  0.57670005    -0.06300
C550        C  0.46452888  0.54095365  0.42802929    -0.05900
N551        N  0.50072505  0.43613127  0.54375638    -0.25400
N552        N  0.55978430  0.62617617  0.42954457    -0.46200
H553        H  0.47141047  0.57032068  0.58281538     0.07500
C554        C  0.63884439  0.50991539  0.57562507    -0.06300
Cl555      Cl  0.55242902  0.52523371  0.50135417    -0.49300
C556        C  0.66622146  0.54976849  0.40807779     0.43300
H557        H  0.44791348  0.40047976  0.58290526     0.07500
N558        N  0.66394341  0.57966502  0.57595721    -0.46000
C559        C  0.50667701  0.32705633  0.33376292     0.03800
C560        C  0.50798921  0.34669002  0.36965557    -0.12400
C561        C  0.50662524  0.38309999  0.36947652     0.01300
C562        C  0.50411917  0.40008956  0.33343191    -0.10900
C563        C  0.50469858  0.38170721  0.63093899     0.03800
C564        C  0.50597791  0.34538553  0.63111322    -0.10300
H565        H  0.50944229  0.33339108  0.39766761     0.09400
H566        H  0.50433180  0.42893786  0.33319856     0.06900
H567        H  0.50693443  0.33165985  0.60318164     0.06700
C568        C  0.35942136  0.49522566  0.33391731     0.03800
C569        C  0.37768318  0.49409831  0.63140966    -0.12400
C570        C  0.41417080  0.49332360  0.63160040     0.01300
C571        C  0.43243868  0.49331174  0.33441540    -0.10900
C572        C  0.41510646  0.49556966  0.37028391     0.03800
C573        C  0.37874460  0.49656981  0.36999781    -0.10300
H574        H  0.36429520  0.49526282  0.60333775     0.09400
H575        H  0.46144267  0.49417641  0.33456000     0.06900
H576        H  0.36559926  0.49854026  0.39785604     0.06700
C577        C  0.73427540  0.54079246  0.33455182     0.03800
C578        C  0.71828044  0.54447776  0.37059482    -0.12400
C579        C  0.68805094  0.55475943  0.37108657     0.01300
C580        C  0.67291999  0.56062482  0.33538827    -0.10900
C581        C  0.68776227  0.55525349  0.63265049     0.03800
C582        C  0.71906320  0.54652086  0.63226141    -0.10300
H583        H  0.72793947  0.53745442  0.39829124     0.09400
H584        H  0.64707319  0.56521939  0.33566303     0.06900
H585        H  0.73027711  0.54244852  0.60409290     0.06700
C586        C  0.59399903  0.72003602  0.33520040     0.03800
C587        C  0.59668091  0.70271352  0.63268738    -0.12400
C588        C  0.60079736  0.66806637  0.63281411     0.01300
C589        C  0.60397270  0.65146877  0.33548933    -0.10900
C590        C  0.60005984  0.66783171  0.37129364     0.03800
C591        C  0.59469235  0.70166746  0.37112022    -0.10300
H592        H  0.59510528  0.71578424  0.60458382     0.09400
H593        H  0.60596930  0.62385715  0.33562219     0.06900
H594        H  0.59014809  0.71305747  0.39897322     0.06700
C595        C  0.82878609  0.53671624  0.35870281     0.24200
C596        C  0.82346627  0.50485185  0.33298791    -0.23900
C597        C  0.78826559  0.48437250  0.64152887     0.19100
C598        C  0.75890462  0.49567893  0.64233358     0.24200
C599        C  0.76473943  0.52816590  0.33411460    -0.23800
C600        C  0.79974912  0.54839573  0.35909291     0.19100
F601        F  0.80640826  0.58022956  0.38322673    -0.13800
F602        F  0.86268127  0.55742997  0.38274485    -0.16100
F603        F  0.72421264  0.47404124  0.61939735    -0.16100
F604        F  0.78170144  0.45263852  0.61729330    -0.13800
C605        C  0.28552520  0.46639531  0.64582590     0.24200
C606        C  0.32114411  0.49665179  0.33358368    -0.23900
C607        C  0.31999795  0.52835866  0.35427556     0.19100
C608        C  0.28403418  0.52984778  0.35382965     0.24200
C609        C  0.24838848  0.49955981  0.33292783    -0.23800
C610        C  0.24932172  0.46767067  0.64570088     0.19100
F611        F  0.21494641  0.43729659  0.62624127    -0.13800
F612        F  0.28555622  0.43510831  0.62600401    -0.16100
F613        F  0.28443516  0.56177177  0.37285357    -0.16100
F614        F  0.35418579  0.55876951  0.37391441    -0.13800
C615        C  0.80379983  0.19013955  0.64506837     0.24200
C616        C  0.77490056  0.19313062  0.33529736    -0.23900
C617        C  0.78869232  0.22943915  0.35808904     0.19100
C618        C  0.83042652  0.26233755  0.35709969     0.24200
C619        C  0.85944928  0.25949063  0.33354089    -0.23800
C620        C  0.84578072  0.22299825  0.64434964     0.19100
F621        F  0.87326282  0.21887948  0.62223483    -0.13800
F622        F  0.79151299  0.15515356  0.62323639    -0.16100
F623        F  0.84209591  0.29763659  0.37818041    -0.16100
F624        F  0.76134304  0.23380202  0.38020362    -0.13800
C625        C  0.47361692  0.21520297  0.64455055     0.24200
C626        C  0.50271902  0.21102993  0.33316855    -0.23900
C627        C  0.53402321  0.24567622  0.35458359     0.19100
C628        C  0.53550233  0.28356497  0.35478375     0.24200
C629        C  0.50575262  0.28734091  0.33351462    -0.23800
C630        C  0.47498924  0.25287262  0.31152814     0.19100
F631        F  0.44539542  0.25524472  0.62455045    -0.13800
F632        F  0.44296272  0.18228146  0.62364995    -0.16100
F633        F  0.56653694  0.31685662  0.37497032    -0.16100
F634        F  0.56371487  0.24312760  0.37446736    -0.13800
C635        C  0.20600184  0.77224901  0.35607800     0.24200
C636        C  0.19772577  0.73801088  0.33226877    -0.23900
C637        C  0.23015499  0.74057111  0.64301235     0.19100
C638        C  0.27003265  0.77678982  0.64407719     0.24200
C639        C  0.27824391  0.81113914  0.33430488    -0.23800
C640        C  0.24593170  0.80856861  0.35705302     0.19100
F641        F  0.25280312  0.84149774  0.37959516    -0.13800
F642        F  0.17515000  0.77077959  0.37783567    -0.16100
F643        F  0.30106282  0.77779329  0.62304403    -0.16100
F644        F  0.22366313  0.70750644  0.62091418    -0.13800
C645        C  0.55996230  0.75682010  0.30939766     0.24200
C646        C  0.58879296  0.75614853  0.33516133    -0.23900
C647        C  0.61260741  0.79023421  0.36093140     0.19100
C648        C  0.60768359  0.82429035  0.36088817     0.24200
C649        C  0.57887145  0.82492630  0.33508425    -0.23800
C650        C  0.55533839  0.79104765  0.30910104     0.19100
F651        F  0.52677300  0.79034980  0.61760797    -0.13800
F652        F  0.53509111  0.72366024  0.61877053    -0.16100
F653        F  0.63180923  0.85710887  0.38548936    -0.16100
F654        F  0.64131278  0.79103833  0.38565232    -0.13800
C655        C  0.57264830  0.86033071  0.66932875     0.03800
C656        C  0.56717231  0.87483448  0.70571697    -0.12400
C657        C  0.56216159  0.90885614  0.70672003     0.01300
C658        C  0.56125648  0.92785942  0.00478157    -0.10900
C659        C  0.56519504  0.91260915  0.96838974     0.03800
C660        C  0.57153768  0.87941031  0.96728000    -0.10300
H661        H  0.56701244  0.85986662  0.73325875     0.09400
H662        H  0.55664523  0.95383457  0.00563047     0.06900
H663        H  0.57556769  0.86852076  0.93890533     0.06700
C664        C  0.32084149  0.84891373  0.66900124     0.03800
C665        C  0.34233324  0.86763834  0.96691136    -0.12400
C666        C  0.38422855  0.90037401  0.96788271     0.01300
C667        C  0.40475003  0.91514517  0.67093452    -0.10900
C668        C  0.38325032  0.89729246  0.70637318     0.03800
C669        C  0.34138930  0.86430341  0.70548275    -0.10300
H670        H  0.32682370  0.85590504  0.93853897     0.09400
H671        H  0.43744700  0.94009743  0.00499456     0.06900
H672        H  0.32532004  0.84975794  0.73304538     0.06700
C673        C  0.40743173  0.91669582  0.93087334     0.43100
N674        N  0.43620825  0.95496892  0.87979812     0.02000
C675        C  0.58987802  0.96432641  0.76290429    -0.05900
H676        H  0.62402477  0.98975592  0.91882039     0.07500
C677        C  0.61654565  0.11484822  0.90878540    -0.06200
Co678      Co  0.48991870  0.93158907  0.83743034     0.74200
N679        N  0.57126026  0.97067132  0.88013832    -0.25400
Co680      Co  0.59254737  0.01587957  0.83576941     0.74100
C681        C  0.64277640  0.10252726  0.92784153     0.43200
N682        N  0.51715833  0.07970437  0.87736281     0.01600
N683        N  0.61301248  0.06283809  0.87792380     0.01700
N684        N  0.52281469  0.90924753  0.76524625    -0.46300
H685        H  0.43807441  0.87901612  0.92029916     0.07500
N686        N  0.53223864  0.93845199  0.88076653     0.02000
N687        N  0.61215435  0.06119849  0.79161954     0.01700
C688        C  0.64189036  0.10022366  0.74117061     0.43300
N689        N  0.47820874  0.04741125  0.87828555    -0.24900
C690        C  0.43073442  0.89998212  0.76381860    -0.05800
N691        N  0.41080491  0.94866427  0.90968048    -0.46000
N692        N  0.63798912  0.06786442  0.76206722    -0.46200
C693        C  0.40492712  0.91254752  0.74421490     0.43100
N694        N  0.53126607  0.93612575  0.79442421     0.02000
N695        N  0.47778110  0.04648831  0.79101647    -0.24900
N696        N  0.44954444  0.92906153  0.88048836    -0.25400
N697        N  0.51676501  0.07879003  0.79153572     0.01600
H698        H  0.42615767  0.02934802  0.75124097     0.07500
H699        H  0.61105620  0.13777637  0.75169521     0.07600
N700        N  0.57019064  0.96851097  0.79369652    -0.25400
N701        N  0.59954049  0.08860931  0.87788764    -0.25000
N702        N  0.43567856  0.95336551  0.79326885     0.02000
C703        C  0.56042153  0.92978315  0.93149414     0.43400
C704        C  0.45910859  0.05136990  0.90989538    -0.06300
N705        N  0.59895608  0.08721991  0.79112823    -0.25000
H706        H  0.61132058  0.13944288  0.91673719     0.07500
N707        N  0.52438099  0.91305752  0.91118278    -0.46300
H708        H  0.42709452  0.02967486  0.91877089     0.07500
C709        C  0.49003895  0.09039901  0.74130795     0.43200
C710        C  0.43291972  0.90356384  0.91189004    -0.05800
Co711      Co  0.45594502  0.00042948  0.83549907     0.73800
N712        N  0.52604511  0.10647873  0.90664199    -0.46000
C713        C  0.55854307  0.92502972  0.74462991     0.43500
N714        N  0.40976394  0.94602585  0.76360741    -0.46000
Co715      Co  0.55850137  0.08449831  0.83447461     0.73900
C716        C  0.61595991  0.11301927  0.75993154    -0.06300
C717        C  0.59159762  0.96791111  0.91134019    -0.05900
N718        N  0.44851454  0.92703364  0.79403231    -0.25400
N719        N  0.63892072  0.06998122  0.90751320    -0.46200
H720        H  0.62202768  0.98603471  0.75446817     0.07500
C721        C  0.45840812  0.05074084  0.75962526    -0.06300
Cl722      Cl  0.52418025  0.00806113  0.83569436    -0.49300
C723        C  0.49093350  0.09063487  0.92816974     0.43300
H724        H  0.43539333  0.87486576  0.75651243     0.07500
N725        N  0.52533745  0.10576393  0.76245295    -0.46000
C726        C  0.49927334  0.17008084  0.00071710     0.03800
C727        C  0.49678585  0.14981691  0.96504772    -0.12400
C728        C  0.48873473  0.10910138  0.96532399     0.01300
C729        C  0.48332506  0.08827540  0.00135039    -0.10900
C730        C  0.48809281  0.10909570  0.70389325     0.03800
C731        C  0.49625835  0.15005508  0.70355402    -0.10300
H732        H  0.50096491  0.16571192  0.93697667     0.09400
H733        H  0.47851565  0.05724095  0.00148881     0.06900
H734        H  0.49945158  0.16592168  0.73137437     0.06700
C735        C  0.73005325  0.15965116  0.66830954     0.03800
C736        C  0.70831429  0.14574457  0.96555131    -0.12400
C737        C  0.66504391  0.11767391  0.96538479     0.01300
C738        C  0.64319209  0.10320906  0.66782805    -0.10900
C739        C  0.66476867  0.11584729  0.70387042     0.03800
C740        C  0.70809471  0.14375447  0.70414646    -0.10300
H741        H  0.72479213  0.15769789  0.93764043     0.09400
H742        H  0.60961726  0.08154093  0.00093080     0.06900
H743        H  0.72457463  0.15378249  0.73224533     0.06700
C744        C  0.08241834  0.61930048  0.92491008     0.43100
N745        N  0.08272492  0.58557648  0.87425179     0.02000
C746        C  0.91937620  0.44341173  0.75668902    -0.05900
H747        H  0.90192343  0.41058905  0.91415617     0.07500
C748        C  0.02020036  0.39440131  0.90630089    -0.06200
Co749      Co  0.00124256  0.54038529  0.83144645     0.74200
N750        N  0.94423939  0.46083243  0.87470801    -0.25400
Co751      Co  0.96088598  0.43341875  0.83124263     0.74100
C752        C  0.97850930  0.37223115  0.92403806     0.43200
N753        N  0.10294097  0.49112757  0.87401364     0.01600
N754        N  0.97900650  0.40699328  0.87375116     0.01700
N755        N  0.94525674  0.51324588  0.75835138    -0.46300
H756        H  0.01338523  0.59699974  0.91568053     0.07500
N757        N  0.95909218  0.50146292  0.87437586     0.02000
N758        N  0.97933330  0.40780736  0.78810374     0.01700
C759        C  0.97987647  0.37514465  0.73666445     0.43300
N760        N  0.11801503  0.53181107  0.87457500    -0.24900
C761        C  0.04061633  0.59733739  0.75593441    -0.05800
N762        N  0.10646673  0.61041471  0.90326211    -0.46000
N763        N  0.95575838  0.38358775  0.75873363    -0.46200
C764        C  0.08183737  0.61878666  0.73758407     0.43100
N765        N  0.95915506  0.50155379  0.78839252     0.02000
N766        N  0.11777878  0.53222074  0.78759567    -0.24900
N767        N  0.04446295  0.57785262  0.87517442    -0.25400
N768        N  0.10272979  0.49155117  0.78792731     0.01600
H769        H  0.16006188  0.58227826  0.74787033     0.07500
H770        H  0.04878534  0.39705161  0.74598464     0.07600
N771        N  0.94435444  0.46095748  0.78817347    -0.25400
N772        N  0.01721279  0.41462112  0.87477564    -0.25000
N773        N  0.08249797  0.58564143  0.78860048     0.02000
C774        C  0.91911220  0.47819923  0.92472894     0.43400
C775        C  0.14387120  0.54886661  0.90568664    -0.06300
N776        N  0.01755699  0.41552812  0.78707273    -0.25000
H777        H  0.04769449  0.39459866  0.91520626     0.07500
N778        N  0.94474950  0.51324011  0.90391255    -0.46300
H779        H  0.16096346  0.58164917  0.91406465     0.07500
C780        C  0.14238059  0.51445855  0.73716943     0.43200
C781        C  0.04101885  0.59746490  0.90685290    -0.05800
Co782      Co  0.10115913  0.55963036  0.83129958     0.73800
N783        N  0.11750607  0.47901796  0.90316125    -0.46000
C784        C  0.92020474  0.47809914  0.73739108     0.43500
N785        N  0.10600242  0.61010412  0.75932334    -0.46000
Co786      Co  0.06058220  0.45259375  0.83100347     0.73900
C787        C  0.02113734  0.39647008  0.75497311    -0.06300
C788        C  0.91878135  0.44341285  0.90595307    -0.05900
N789        N  0.04425795  0.57795038  0.78775587    -0.25400
N790        N  0.95493828  0.38176337  0.90239233    -0.46200
H791        H  0.90278684  0.41061482  0.74848871     0.07500
C792        C  0.14310380  0.54945837  0.75614285    -0.06300
Cl793      Cl  0.03099359  0.49654365  0.83134000    -0.49300
C794        C  0.14373074  0.51383423  0.92400319     0.43300
H795        H  0.01291961  0.59678164  0.74708898     0.07500
N796        N  0.11675126  0.47959801  0.75822678    -0.46000
C797        C  0.21111714  0.50259090  0.66527293     0.03800
C798        C  0.19427242  0.50489595  0.96228411    -0.12400
C799        C  0.16262398  0.51345847  0.96162966     0.01300
C800        C  0.14724587  0.51910651  0.99720488    -0.10900
C801        C  0.16225818  0.51442685  0.70013417     0.03800
C802        C  0.19401290  0.50614200  0.70083273    -0.10300
H803        H  0.20665144  0.50142887  0.93457901     0.09400
H804        H  0.12215486  0.52484715  0.99668587     0.06900
H805        H  0.20572837  0.50287114  0.72908854     0.06700
C806        C  0.90364590  0.29486252  0.66555172     0.03800
C807        C  0.92323882  0.31260439  0.96255150    -0.12400
C808        C  0.96363236  0.34883688  0.96147053     0.01300
C809        C  0.98486628  0.36716150  0.66377088    -0.10900
C810        C  0.96475880  0.35038561  0.70014858     0.03800
C811        C  0.92485092  0.31386940  0.70083077    -0.10300
H812        H  0.90609106  0.29973655  0.93509984     0.09400
H813        H  0.01460670  0.39685676  0.66315845     0.06900
H814        H  0.90940554  0.30141165  0.72907757     0.06700
C815        C  0.85447987  0.49291718  0.66549940     0.03800
C816        C  0.86962175  0.48690700  0.70105752    -0.12400
C817        C  0.90019731  0.47723658  0.70045029     0.01300
C818        C  0.91460144  0.47145278  0.99772764    -0.10900
C819        C  0.89996503  0.47799401  0.96212365     0.03800
C820        C  0.87037261  0.48918374  0.96263579    -0.10300
H821        H  0.85808974  0.49027984  0.72934298     0.09400
H822        H  0.93904558  0.46475794  0.99739734     0.06900
H823        H  0.86036326  0.49573389  0.93492102     0.06700
C824        C  0.15553730  0.69948036  0.66503349     0.03800
C825        C  0.13606441  0.68052276  0.96239464    -0.12400
C826        C  0.09684154  0.64301613  0.96201783     0.01300
C827        C  0.07628050  0.62475242  0.66454996    -0.10900
C828        C  0.09640600  0.64274503  0.70064116     0.03800
C829        C  0.13572265  0.68005836  0.70069619    -0.10300
H830        H  0.15189665  0.69431373  0.93458668     0.09400
H831        H  0.04714755  0.59445528  0.66439211     0.06900
H832        H  0.15181163  0.69295726  0.72863209     0.06700
C833        C  0.51116197  0.40521526  0.73997706     0.43100
N834        N  0.53958011  0.44389762  0.79092768     0.02000
C835        C  0.46437174  0.53938154  0.90838033    -0.05900
H836        H  0.47120885  0.57195460  0.75442548     0.07500
C837        C  0.62493443  0.63803728  0.76062119    -0.06200
Co838      Co  0.48212722  0.46233375  0.83377791     0.74200
N839        N  0.48074744  0.53106494  0.79152845    -0.25400
Co840      Co  0.52301400  0.56935467  0.83514165     0.74100
C841        C  0.59543372  0.64610886  0.74183992     0.43200
N842        N  0.63960044  0.56089976  0.79162871     0.01600
N843        N  0.56628516  0.60732296  0.79242326     0.01700
N844        N  0.43854701  0.46956613  0.90759053    -0.46300
H845        H  0.44993178  0.40288028  0.74946421     0.07500
N846        N  0.46548919  0.49036248  0.79049840     0.02000
N847        N  0.56607751  0.60670600  0.87859801     0.01700
C848        C  0.59569175  0.64588171  0.92902268     0.43300
N849        N  0.62433218  0.52021276  0.79227033    -0.24900
C850        C  0.47973166  0.41142552  0.90809605    -0.05800
N851        N  0.54648150  0.42510051  0.76157326    -0.46000
N852        N  0.55981579  0.62569946  0.90819033    -0.46200
C853        C  0.50915246  0.40309233  0.92680789     0.43100
N854        N  0.46474383  0.48920379  0.87773117     0.02000
N855        N  0.62362613  0.51973178  0.87804807    -0.24900
N856        N  0.50176749  0.43738573  0.78996530    -0.25400
N857        N  0.63905115  0.56046930  0.87859105     0.01600
H858        H  0.63182036  0.47892116  0.91651945     0.07500
H859        H  0.65687581  0.64867075  0.91807200     0.07600
N860        N  0.48045431  0.53001755  0.87783010    -0.25400
N861        N  0.60413219  0.61395566  0.79198172    -0.25000
N862        N  0.53865640  0.44296812  0.87691699     0.02000
C863        C  0.43738447  0.50139673  0.74098020     0.43400
C864        C  0.63991338  0.51033758  0.76184528    -0.06300
N865        N  0.60400354  0.61353628  0.87878371    -0.25000
H866        H  0.65663152  0.64867535  0.75228001     0.07500
N867        N  0.43964537  0.47136548  0.76028661    -0.46300
H868        H  0.63285021  0.47930006  0.75447002     0.07500
C869        C  0.66499914  0.54949467  0.92943009     0.43200
C870        C  0.48153344  0.41354920  0.75823228    -0.05800
Co871      Co  0.58197058  0.48116601  0.83459569     0.73800
N872        N  0.66478932  0.58002742  0.76107039    -0.46000
C873        C  0.43670367  0.49940822  0.92775673     0.43500
N874        N  0.54502240  0.42370608  0.90618551    -0.46000
Co875      Co  0.62278203  0.58815020  0.83519645     0.73900
C876        C  0.62502729  0.63776388  0.91003358    -0.06300
C877        C  0.46452914  0.54095370  0.76136236    -0.05900
N878        N  0.50072516  0.43613110  0.87708951    -0.25400
N879        N  0.55978501  0.62617624  0.76287783    -0.46200
H880        H  0.47141173  0.57032100  0.91614844     0.07500
C881        C  0.63884463  0.50991450  0.90895784    -0.06300
Cl882      Cl  0.55242932  0.52523342  0.83468712    -0.49300
C883        C  0.66622205  0.54976809  0.74141119     0.43300
H884        H  0.44791393  0.40048022  0.91623914     0.07500
N885        N  0.66394354  0.57966411  0.90929042    -0.46000
C886        C  0.50667789  0.32705643  0.66709596     0.03800
C887        C  0.50798962  0.34668992  0.70298859    -0.12400
C888        C  0.50662495  0.38309949  0.70280952     0.01300
C889        C  0.50411844  0.40008882  0.66676494    -0.10900
C890        C  0.50469956  0.38170749  0.96427220     0.03800
C891        C  0.50598031  0.34538664  0.96444614    -0.10300
H892        H  0.50944281  0.33339109  0.73100065     0.09400
H893        H  0.50433053  0.42893681  0.66653166     0.06900
H894        H  0.50693729  0.33166135  0.93651429     0.06700
C895        C  0.35942010  0.49522412  0.66725056     0.03800
C896        C  0.37768477  0.49409971  0.96474266    -0.12400
C897        C  0.41417196  0.49332421  0.96493364     0.01300
C898        C  0.43243896  0.49331297  0.66774860    -0.10900
C899        C  0.41510610  0.49556966  0.70361718     0.03800
C900        C  0.37874346  0.49656847  0.70333114    -0.10300
H901        H  0.36429726  0.49526479  0.93667071     0.09400
H902        H  0.46144337  0.49417850  0.66789312     0.06900
H903        H  0.36559775  0.49853820  0.73118935     0.06700
C904        C  0.73427573  0.54079268  0.66788436     0.03800
C905        C  0.71828046  0.54447707  0.70392758    -0.12400
C906        C  0.68805113  0.55475893  0.70441980     0.01300
C907        C  0.67292027  0.56062497  0.66872182    -0.10900
C908        C  0.68776204  0.55525224  0.96598378     0.03800
C909        C  0.71906271  0.54651922  0.96559535    -0.10300
H910        H  0.72793931  0.53745317  0.73162377     0.09400
H911        H  0.64707356  0.56521969  0.66899692     0.06900
H912        H  0.73027642  0.54244593  0.93742708     0.06700
C913        C  0.59399693  0.72003526  0.66853476     0.03800
C914        C  0.59668087  0.70271309  0.96602043    -0.12400
C915        C  0.60079653  0.66806545  0.96614743     0.01300
C916        C  0.60397375  0.65147001  0.66882257    -0.10900
C917        C  0.60006038  0.66783218  0.70462716     0.03800
C918        C  0.59469149  0.70166704  0.70445430    -0.10300
H919        H  0.59510626  0.71578428  0.93791669     0.09400
H920        H  0.60597148  0.62385906  0.66895504     0.06900
H921        H  0.59014705  0.71305649  0.73230748     0.06700
C922        C  0.82878590  0.53671586  0.69203609     0.24200
C923        C  0.82346666  0.50485205  0.66632069    -0.23900
C924        C  0.78826469  0.48437081  0.97486535     0.19100
C925        C  0.75890331  0.49567669  0.97567019     0.24200
C926        C  0.76474002  0.52816646  0.66744675    -0.23800
C927        C  0.79974900  0.54839540  0.69242597     0.19100
F928        F  0.80640748  0.58022836  0.71656067    -0.13800
F929        F  0.86268040  0.55742898  0.71607901    -0.16100
F930        F  0.72421018  0.47403721  0.95273571    -0.16100
F931        F  0.78170003  0.45263562  0.95063130    -0.13800
C932        C  0.28552677  0.46639656  0.97915804     0.24200
C933        C  0.32114255  0.49664973  0.66691678    -0.23900
C934        C  0.31999592  0.52835623  0.68760881     0.19100
C935        C  0.28403212  0.52984520  0.68716256     0.24200
C936        C  0.24838681  0.49955756  0.66626010    -0.23800
C937        C  0.24932295  0.46767125  0.97903353     0.19100
F938        F  0.21494803  0.43729739  0.95957334    -0.13800
F939        F  0.28555839  0.43511045  0.95933498    -0.16100
F940        F  0.28443278  0.56176894  0.70618664    -0.16100
F941        F  0.35418344  0.55876702  0.70724807    -0.13800
C942        C  0.80379874  0.19013981  0.97840263     0.24200
C943        C  0.77490031  0.19313020  0.66863063    -0.23900
C944        C  0.78869153  0.22943952  0.69142090     0.19100
C945        C  0.83042553  0.26233822  0.69043118     0.24200
C946        C  0.85944868  0.25949088  0.66687343    -0.23800
C947        C  0.84577979  0.22299813  0.97768415     0.19100
F948        F  0.87326185  0.21887883  0.95556987    -0.13800
F949        F  0.79151157  0.15515359  0.95657090    -0.16100
F950        F  0.84209438  0.29763780  0.71151072    -0.16100
F951        F  0.76134195  0.23380280  0.71353453    -0.13800
C952        C  0.47361917  0.21520404  0.97788274     0.24200
C953        C  0.50271898  0.21102943  0.66650235    -0.23900
C954        C  0.53402280  0.24567536  0.68791801     0.19100
C955        C  0.53550245  0.28356442  0.68811776     0.24200
C956        C  0.50575348  0.28734092  0.66684776    -0.23800
C957        C  0.47499035  0.25287282  0.64486088     0.19100
F958        F  0.44539852  0.25524648  0.95788249    -0.13800
F959        F  0.44296458  0.18228266  0.95698233    -0.16100
F960        F  0.56653663  0.31685568  0.70830510    -0.16100
F961        F  0.56371343  0.24312600  0.70780303    -0.13800
C962        C  0.20600347  0.77224572  0.68941818     0.24200
C963        C  0.19772409  0.73801263  0.66559910    -0.23900
C964        C  0.23015718  0.74056701  0.97635514     0.19100
C965        C  0.27003495  0.77678550  0.97742026     0.24200
C966        C  0.27824248  0.81114174  0.66763516    -0.23800
C967        C  0.24593324  0.80856544  0.69039332     0.19100
F968        F  0.25280719  0.84148924  0.71294565    -0.13800
F969        F  0.17515503  0.77077143  0.71118609    -0.16100
F970        F  0.30106777  0.77778543  0.95639528    -0.16100
F971        F  0.22366703  0.70749859  0.95426435    -0.13800
C972        C  0.55995894  0.75681863  0.64273332     0.24200
C973        C  0.58879018  0.75614734  0.66849637    -0.23900
C974        C  0.61260511  0.79023320  0.69426612     0.19100
C975        C  0.60768153  0.82428949  0.69422283     0.24200
C976        C  0.57886903  0.82492531  0.66841932    -0.23800
C977        C  0.55533516  0.79104625  0.64243675     0.19100
F978        F  0.52677812  0.79035410  0.95093891    -0.13800
F979        F  0.53509329  0.72366266  0.95210225    -0.16100
F980        F  0.63180776  0.85710826  0.71882355    -0.16100
F981        F  0.64131077  0.79103739  0.71898669    -0.13800
loop_ 
_geom_bond_atom_site_label_1 
_geom_bond_atom_site_label_2 
_geom_bond_distance 
_geom_bond_site_symmetry_2 
_ccdc_geom_bond_type 
C1            C2   1.403       .  A
C1          C660   1.404   1_554  A
C1          C322   1.477       .  S
C2            C3   1.396       .  A
C2            H7   1.084       .  S
C3          C658   1.397       .  A
C3           C59   1.454       .  S
C4            C5   1.396       .  A
C4          C330   1.397       .  A
C4            H8   1.085       .  S
C5            C6   1.398       .  A
C5           C49   1.456       .  S
C6          C328   1.404       .  A
C6            H9   1.084       .  S
C10          C15   1.403       .  A
C10         C665   1.404   1_554  A
C10         C312   1.477       .  S
C11          C12   1.397       .  A
C11         C337   1.404       .  A
C11          H16   1.085       .  S
C12         C340   1.398       .  A
C12          C19   1.459       .  S
C13          C14   1.399       .  A
C13         C666   1.398   1_554  A
C13         H671   1.084       .  S
C14          C15   1.399       .  A
C14          C39   1.458       .  S
C15          H18   1.085       .  S
H17         C340   1.084       .  S
C19          C56   1.451       .  S
C19          N37   1.347       .  A
N20          N37   1.325       .  A
N20          N42   1.321       .  A
N20         Co57   2.086   1_565  S
C21          C59   1.451       .  S
C21          H66   1.082       .  S
C21          N46   1.337       .  A
H22          C63   1.082       .  S
C23          C27   1.454       .  S
C23          H52   1.082       .  S
C23          N47   1.340       .  A
Co24         N42   2.076       .  S
Co24         N32   2.081       .  S
Co24         N64   2.084       .  S
Co24         N40   2.076       .  S
Co24        Cl68   2.451   1_565  S
N25          C63   1.340       .  A
N25          N32   1.321       .  A
N25         Co26   2.078   1_565  S
Co26         N29   2.071       .  S
Co26         N46   2.074   1_545  S
Co26         N33   2.080       .  S
Co26        Cl68   2.450       .  S
C27          C83   1.457       .  S
C27          N65   1.345       .  A
N28          N35   1.320       .  A
N28          N58   1.321       .  A
N28         Co61   2.069       .  S
N29          N47   1.320       .  A
N29          N65   1.322       .  A
N30          C59   1.346       .  A
N30          N40   1.323       .  A
H31          C56   1.082       .  S
N32          N53   1.323       .  A
N33          N51   1.320       .  A
N33          N38   1.324       .  A
C34          C62   1.454       .  S
C34          C85   1.460       .  S
C34          N38   1.347       .  A
N35          C50   1.341       .  A
N35         Co57   2.082       .  S
C36          C39   1.455       .  S
C36          H70   1.082       .  S
C36          N64   1.340       .  A
C39          N60   1.345       .  A
N40          N46   1.320       .  A
N41          C67   1.345       .  A
N41          N43   1.321       .  A
N41         Co57   2.100       .  S
N42          C56   1.339       .  A
N43          N71   1.321       .  A
N43         Co61   2.069       .  S
H44          C67   1.082       .  S
H45          C62   1.082       .  S
N47         Co61   2.080       .  S
N48          N60   1.323       .  A
N48          N64   1.321       .  A
N48         Co57   2.076   1_565  S
C49          C63   1.452       .  S
C49          N53   1.346       .  A
C50          C69   1.455       .  S
C50          H54   1.082       .  S
N51          C62   1.340       .  A
N51         Co61   2.082       .  S
C55          C67   1.462       .  S
C55          C76   1.465       .  S
C55          N71   1.344       .  A
Co57        Cl68   2.448       .  S
N58          C69   1.344       .  A
Co61        Cl68   2.449       .  S
C69          C74   1.457       .  S
C72          C73   1.401       .  A
C72         C404   1.405       .  A
C72         C626   1.480       .  S
C73          C74   1.397       .  A
C73          H78   1.085       .  S
C74          C75   1.399       .  A
C75         C403   1.400       .  A
C75          H79   1.085       .  S
C76          C77   1.405       .  A
C76         C729   1.400       .  A
C77         C726   1.405       .  A
C77          H80   1.084       .  S
C81          C86   1.406       .  A
C81         C736   1.403   1_554  A
C81         C289   1.480       .  S
C82          C83   1.399       .  A
C82         C408   1.403       .  A
C82          H87   1.085       .  S
C83         C411   1.398       .  A
C84          C85   1.397       .  A
C84         C737   1.398   1_554  A
C84         H742   1.085       .  S
C85          C86   1.400       .  A
C86          H89   1.085       .  S
H88         C411   1.085       .  S
C90         C127   1.460       .  S
C90         C172   1.463       .  S
C90         N108   1.344       .  A
N91         N108   1.319       .  A
N91         N113   1.320       .  A
N91        Co128   2.069       .  S
C92         C130   1.446       .  S
C92         H137   1.082       .  S
C92         N117   1.338       .  A
H93         C134   1.082       .  S
C94          C98   1.464   1_455  S
C94         H123   1.082       .  S
C94         N118   1.347       .  A
Co95        N113   2.092       .  S
Co95        N103   2.072   1_455  S
Co95        N135   2.089       .  S
Co95        N111   2.072   1_455  S
Co95       Cl139   2.453       .  S
N96         C134   1.339       .  A
N96         N103   1.321       .  A
N96         Co97   2.078       .  S
Co97        N100   2.061       .  S
Co97        N117   2.067       .  S
Co97        N104   2.066       .  S
Co97       Cl139   2.443   1_655  S
C98         C154   1.467       .  S
C98         N136   1.344       .  A
N99         N106   1.321       .  A
N99         N129   1.322       .  A
N99        Co132   2.072       .  S
N100        N118   1.319   1_655  A
N100        N136   1.319       .  A
N101        C130   1.346       .  A
N101        N111   1.321       .  A
H102        C127   1.082       .  S
N103        N124   1.321       .  A
N104        N122   1.319   1_655  A
N104        N109   1.319       .  A
C105        C133   1.460   1_655  S
C105        C156   1.463       .  S
C105        N109   1.344       .  A
N106        C121   1.341       .  A
N106       Co128   2.086       .  S
C107        C110   1.459       .  S
C107        H141   1.082       .  S
C107        N135   1.345       .  A
C110        C174   1.461       .  S
C110        N131   1.344       .  A
N111        N117   1.320       .  A
N112        C138   1.342       .  A
N112        N114   1.320       .  A
N112       Co128   2.083       .  S
N113        C127   1.345       .  A
N114        N142   1.322       .  A
N114       Co132   2.075       .  S
H115        C138   1.083       .  S
H116        C133   1.082       .  S
N118       Co132   2.100       .  S
N119        N131   1.319       .  A
N119        N135   1.320       .  A
N119       Co128   2.068       .  S
C120        C134   1.452       .  S
C120        C165   1.453       .  S
C120        N124   1.345       .  A
C121        C140   1.456       .  S
C121        H125   1.083       .  S
N122        C133   1.346       .  A
N122       Co132   2.089       .  S
C126        C138   1.455       .  S
C126        C147   1.459       .  S
C126        N142   1.345       .  A
Co128      Cl139   2.443       .  S
N129        C140   1.345       .  A
C130        C163   1.448       .  S
Co132      Cl139   2.452       .  S
C140        C145   1.459       .  S
C143        C148   1.403   1_556  A
C143        C798   1.404       .  A
C143        C282   1.480       .  S
C144        C145   1.402       .  A
C144        C470   1.404       .  A
C144        H149   1.084       .  S
C145        C146   1.399       .  A
C146        C474   1.398       .  A
C146        H150   1.084       .  S
C147        C148   1.398       .  A
C147        C800   1.398   1_554  A
C148        H151   1.085       .  S
C152        C157   1.398   1_556  A
C152        C807   1.402       .  A
C152        C292   1.483   1_556  S
C153        C154   1.406       .  A
C153        C479   1.402       .  A
C153        H158   1.084       .  S
C154        C482   1.404       .  A
C155        C156   1.403   1_556  A
C155        C808   1.404       .  A
C155        H159   1.084   1_655  S
C156        C157   1.399       .  A
C157        H160   1.084       .  S
C161        C162   1.398   1_556  A
C161        C820   1.401       .  A
C161        C269   1.469       .  S
C162        C163   1.391       .  A
C162        H167   1.085       .  S
C163        C818   1.397   1_554  A
C164        C165   1.397       .  A
C164        C490   1.397       .  A
C164        H168   1.085       .  S
C165        C166   1.396       .  A
C166        C488   1.401       .  A
C166        H169   1.085       .  S
C170        C175   1.398   1_556  A
C170        C825   1.400       .  A
C170        C309   1.478       .  S
C171        C172   1.401       .  A
C171        C497   1.400       .  A
C171        H176   1.084       .  S
C172        C500   1.403       .  A
C173        C174   1.402   1_556  A
C173        C826   1.403       .  A
C173        H177   1.084       .  S
C174        C175   1.400       .  A
C175        H178   1.085       .  S
C179        C216   1.457       .  S
C179        C234   1.463       .  S
C179        N197   1.346       .  A
N180        N197   1.323       .  A
N180        N202   1.321       .  A
N180       Co217   2.075       .  S
C181        C219   1.452       .  S
C181        H226   1.082       .  S
C181        N206   1.338       .  A
H182        C223   1.082       .  S
C183        C187   1.453       .  S
C183        H212   1.082       .  S
C183        N207   1.340       .  A
Co184       N202   2.092       .  S
Co184       N192   2.087       .  S
Co184       N224   2.085       .  S
Co184       N200   2.092       .  S
Co184      Cl228   2.444       .  S
N185        C223   1.340       .  A
N185        N192   1.321       .  A
N185       Co186   2.082       .  S
Co186       N189   2.074       .  S
Co186       N206   2.077       .  S
Co186       N193   2.082       .  S
Co186      Cl228   2.452       .  S
C187        C263   1.455       .  S
C187        N225   1.345       .  A
N188        N195   1.320       .  A
N188        N218   1.325       .  A
N188       Co221   2.080       .  S
N189        N207   1.320       .  A
N189        N225   1.321       .  A
N190        C219   1.350       .  A
N190        N200   1.327       .  A
H191        C216   1.082       .  S
N192        N213   1.326       .  A
N193        N211   1.320       .  A
N193        N198   1.322       .  A
C194        C222   1.453       .  S
C194        C261   1.459       .  S
C194        N198   1.347       .  A
N195        C210   1.333       .  A
N195       Co217   2.062       .  S
C196        C199   1.456       .  S
C196        H230   1.082       .  S
C196        N224   1.341       .  A
C199        C236   1.458       .  S
C199        N220   1.345       .  A
N200        N206   1.321       .  A
N201        C227   1.335       .  A
N201        N203   1.320       .  A
N201       Co217   2.072       .  S
N202        C216   1.342       .  A
N203        N231   1.324       .  A
N203       Co221   2.073       .  S
H204        C227   1.082       .  S
H205        C222   1.082       .  S
N207       Co221   2.074       .  S
N208        N220   1.321       .  A
N208        N224   1.320       .  A
N208       Co217   2.068       .  S
C209        C223   1.454       .  S
C209        C245   1.465       .  S
C209        N213   1.348       .  A
C210        C229   1.447       .  S
C210        H214   1.082       .  S
N211        C222   1.341       .  A
N211       Co221   2.078       .  S
C215        C227   1.451       .  S
C215        C254   1.452       .  S
C215        N231   1.344       .  A
Co217      Cl228   2.454       .  S
N218        C229   1.347       .  A
C219        C243   1.464       .  S
Co221      Cl228   2.445       .  S
C229        C252   1.452       .  S
C232        C233   1.405       .  A
C232        C891   1.402   1_554  A
C232        C302   1.481       .  S
C233        C234   1.403       .  A
C233        H238   1.083       .  S
C234        C235   1.399       .  A
C235        C890   1.399   1_554  A
C235        H239   1.085   1_554  S
C236        C237   1.398       .  A
C236        C562   1.399       .  A
C237        C559   1.402       .  A
C237        H240   1.084       .  S
C241        C246   1.406       .  A
C241        C896   1.405   1_554  A
C241        C279   1.483       .  S
C242        C243   1.401       .  A
C242        C568   1.405       .  A
C242        H247   1.085       .  S
C243        C571   1.401       .  A
C244        C245   1.401       .  A
C244        C897   1.401   1_554  A
C244        H248   1.084       .  S
C245        C246   1.401       .  A
C246        H249   1.084       .  S
C250        C251   1.398       .  A
C250        C909   1.397   1_554  A
C250        C272   1.468       .  S
C251        C252   1.395       .  A
C251        H256   1.085       .  S
C252        C253   1.400       .  A
C253        C908   1.400   1_554  A
C253        H257   1.084       .  S
C254        C255   1.393       .  A
C254        C580   1.400       .  A
C255        C577   1.397       .  A
C255        H258   1.085       .  S
C259        C264   1.401       .  A
C259        C914   1.403   1_554  A
C259        C319   1.479       .  S
C260        C261   1.398       .  A
C260        C586   1.403       .  A
C260        H265   1.083       .  S
C261        C589   1.399       .  A
C262        C263   1.399       .  A
C262        C915   1.399   1_554  A
C262        H266   1.085       .  S
C263        C264   1.397       .  A
C264        H267   1.084       .  S
C268        C269   1.407   1_554  A
C268        C273   1.390       .  A
C268        F275   1.358       .  S
C269        C924   1.405       .  A
C270        C271   1.391       .  A
C270        C596   1.405       .  A
C270        F277   1.358       .  S
C271        C599   1.407       .  A
C271        F276   1.358       .  S
C272        C273   1.403       .  A
C272        C925   1.407   1_554  A
C273        F274   1.358       .  S
C278        C283   1.401       .  A
C278        C606   1.408       .  A
C278        F285   1.358       .  S
C279        C280   1.406       .  A
C279        C932   1.408   1_554  A
C280        C281   1.396       .  A
C280        F287   1.358       .  S
C281        C282   1.406   1_554  A
C281        F286   1.358       .  S
C282        C937   1.406       .  A
C283        C609   1.406       .  A
C283        F284   1.358       .  S
C288        C293   1.400       .  A
C288        C616   1.407       .  A
C288        F295   1.358       .  S
C289        C290   1.405       .  A
C289        C942   1.407   1_554  A
C290        C291   1.395       .  A
C290        F297   1.358       .  S
C291        C292   1.409       .  A
C291        F296   1.358       .  S
C292        C947   1.406   1_554  A
C293        C619   1.406       .  A
C293        F294   1.358       .  S
C298        C626   1.406       .  A
C298        C630   1.395       .  A
C298        F305   1.358       .  S
C299        C300   1.406   1_556  A
C299        C952   1.406       .  A
C299        C726   1.480   1_556  S
C300        C301   1.401       .  A
C300        F307   1.358       .  S
C301        C302   1.407       .  A
C301        F306   1.358       .  S
C302        C303   1.406   1_554  A
C303        C952   1.395       .  A
C303        F958   1.358       .  S
F304        C630   1.358       .  S
C308        C309   1.407   1_554  A
C308        C313   1.397       .  A
C308        F315   1.358       .  S
C309        C964   1.407       .  A
C310        C311   1.395       .  A
C310        C636   1.407       .  A
C310        F317   1.358       .  S
C311        C639   1.406       .  A
C311        F316   1.358       .  S
C312        C313   1.406       .  A
C312        C965   1.406   1_554  A
C313        F314   1.358       .  S
C318        C319   1.407   1_556  A
C318        C323   1.394       .  A
C318        F979   1.358       .  S
C319        C320   1.407       .  A
C320        C321   1.395       .  A
C320        F327   1.358       .  S
C321        C322   1.407       .  A
C321        F326   1.358       .  S
C322        C323   1.406   1_554  A
C323        F978   1.358       .  S
F324        C650   1.358       .  S
F325        C645   1.358       .  S
C328        C329   1.403       .  A
C328        C649   1.477       .  S
C329        C330   1.396       .  A
C329        H334   1.084       .  S
C330        C386   1.454       .  S
C331        C657   1.397       .  A
C331        C332   1.396       .  A
C331        H335   1.085       .  S
C332        C333   1.398       .  A
C332        C376   1.456       .  S
C333        C655   1.404       .  A
C333        H336   1.084       .  S
C337        C342   1.403       .  A
C337        C639   1.476       .  S
C338        C664   1.404       .  A
C338        C339   1.397       .  A
C338        H343   1.085       .  S
C339        C667   1.398       .  A
C339        C346   1.459       .  S
C340        C341   1.399       .  A
C341        C342   1.399       .  A
C341        C366   1.458       .  S
C342        H345   1.085       .  S
H344        C667   1.084       .  S
C346        C383   1.451       .  S
C346        N364   1.347       .  A
N347        N364   1.325       .  A
N347        N369   1.321       .  A
N347       Co384   2.086   1_565  S
C348        C386   1.451       .  S
C348        H393   1.082       .  S
C348        N373   1.337       .  A
H349        C390   1.082       .  S
C350        C354   1.454       .  S
C350        H379   1.082       .  S
C350        N374   1.340       .  A
Co351       N369   2.076       .  S
Co351       N359   2.081       .  S
Co351       N391   2.084       .  S
Co351       N367   2.076       .  S
Co351      Cl395   2.451   1_565  S
N352        C390   1.340       .  A
N352        N359   1.321       .  A
N352       Co353   2.078   1_565  S
Co353       N356   2.071       .  S
Co353       N373   2.074   1_545  S
Co353       N360   2.080       .  S
Co353      Cl395   2.450       .  S
C354        C410   1.457       .  S
C354        N392   1.345       .  A
N355        N362   1.320       .  A
N355        N385   1.321       .  A
N355       Co388   2.070       .  S
N356        N374   1.320       .  A
N356        N392   1.322       .  A
N357        C386   1.346       .  A
N357        N367   1.323       .  A
H358        C383   1.082       .  S
N359        N380   1.323       .  A
N360        N378   1.320       .  A
N360        N365   1.324       .  A
C361        C389   1.454       .  S
C361        C412   1.460       .  S
C361        N365   1.347       .  A
N362        C377   1.341       .  A
N362       Co384   2.082       .  S
C363        C366   1.455       .  S
C363        H397   1.082       .  S
C363        N391   1.340       .  A
C366        N387   1.345       .  A
N367        N373   1.320       .  A
N368        C394   1.345       .  A
N368        N370   1.321       .  A
N368       Co384   2.100       .  S
N369        C383   1.339       .  A
N370        N398   1.321       .  A
N370       Co388   2.069       .  S
H371        C394   1.082       .  S
H372        C389   1.082       .  S
N374       Co388   2.080       .  S
N375        N387   1.323       .  A
N375        N391   1.321       .  A
N375       Co384   2.076   1_565  S
C376        C390   1.452       .  S
C376        N380   1.346       .  A
C377        C396   1.455       .  S
C377        H381   1.082       .  S
N378        C389   1.340       .  A
N378       Co388   2.082       .  S
C382        C394   1.462       .  S
C382        C403   1.465       .  S
C382        N398   1.344       .  A
Co384      Cl395   2.448       .  S
N385        C396   1.344       .  A
Co388      Cl395   2.449       .  S
C396        C401   1.457       .  S
C399        C400   1.401       .  A
C399        C731   1.405       .  A
C399        C953   1.480       .  S
C400        C401   1.397       .  A
C400        H405   1.085       .  S
C401        C402   1.399       .  A
C402        C730   1.400       .  A
C402        H406   1.085       .  S
C403        C404   1.405       .  A
C404        H407   1.084       .  S
C408        C413   1.406       .  A
C408        C616   1.480       .  S
C409        C735   1.403       .  A
C409        C410   1.399       .  A
C409        H414   1.085       .  S
C410        C738   1.398       .  A
C411        C412   1.397       .  A
C412        C413   1.400       .  A
C413        H416   1.085       .  S
H415        C738   1.085       .  S
C417        C454   1.460       .  S
C417        C499   1.463       .  S
C417        N435   1.344       .  A
N418        N435   1.319       .  A
N418        N440   1.320       .  A
N418       Co455   2.069       .  S
C419        C457   1.446       .  S
C419        H464   1.082       .  S
C419        N444   1.338       .  A
H420        C461   1.082       .  S
C421        C425   1.464   1_455  S
C421        H450   1.082       .  S
C421        N445   1.347       .  A
Co422       N440   2.092       .  S
Co422       N430   2.072   1_455  S
Co422       N462   2.089       .  S
Co422       N438   2.072   1_455  S
Co422      Cl466   2.453       .  S
N423        C461   1.339       .  A
N423        N430   1.321       .  A
N423       Co424   2.078       .  S
Co424       N427   2.061       .  S
Co424       N444   2.067       .  S
Co424       N431   2.066       .  S
Co424      Cl466   2.443   1_655  S
C425        C481   1.467       .  S
C425        N463   1.344       .  A
N426        N433   1.321       .  A
N426        N456   1.322       .  A
N426       Co459   2.072       .  S
N427        N445   1.319   1_655  A
N427        N463   1.319       .  A
N428        C457   1.346       .  A
N428        N438   1.321       .  A
H429        C454   1.082       .  S
N430        N451   1.321       .  A
N431        N449   1.319   1_655  A
N431        N436   1.319       .  A
C432        C460   1.460   1_655  S
C432        C483   1.463       .  S
C432        N436   1.344       .  A
N433        C448   1.341       .  A
N433       Co455   2.086       .  S
C434        C437   1.459       .  S
C434        H468   1.082       .  S
C434        N462   1.345       .  A
C437        C501   1.461       .  S
C437        N458   1.344       .  A
N438        N444   1.320       .  A
N439        C465   1.342       .  A
N439        N441   1.320       .  A
N439       Co455   2.083       .  S
N440        C454   1.345       .  A
N441        N469   1.322       .  A
N441       Co459   2.075       .  S
H442        C465   1.083       .  S
H443        C460   1.082       .  S
N445       Co459   2.100       .  S
N446        N458   1.319       .  A
N446        N462   1.320       .  A
N446       Co455   2.068       .  S
C447        C461   1.452       .  S
C447        C492   1.453       .  S
C447        N451   1.345       .  A
C448        C467   1.456       .  S
C448        H452   1.083       .  S
N449        C460   1.346       .  A
N449       Co459   2.089       .  S
C453        C465   1.455       .  S
C453        C474   1.459       .  S
C453        N469   1.345       .  A
Co455      Cl466   2.443       .  S
N456        C467   1.345       .  A
C457        C490   1.448       .  S
Co459      Cl466   2.452       .  S
C467        C472   1.459       .  S
C470        C475   1.403       .  A
C470        C609   1.480       .  S
C471        C797   1.404       .  A
C471        C472   1.402       .  A
C471        H476   1.084       .  S
C472        C473   1.399       .  A
C473        C801   1.398       .  A
C473        H477   1.084       .  S
C474        C475   1.398       .  A
C475        H478   1.085       .  S
C479        C484   1.398       .  A
C479        C619   1.483       .  S
C480        C806   1.402       .  A
C480        C481   1.406       .  A
C480        H485   1.084       .  S
C481        C809   1.404       .  A
C482        C483   1.403       .  A
C482        H486   1.084   1_655  S
C483        C484   1.399       .  A
C484        H487   1.084       .  S
C488        C489   1.398       .  A
C488        C596   1.469       .  S
C489        C490   1.391       .  A
C489        H494   1.085       .  S
C491        C817   1.397       .  A
C491        C492   1.397       .  A
C491        H495   1.085       .  S
C492        C493   1.396       .  A
C493        C815   1.401       .  A
C493        H496   1.085       .  S
C497        C502   1.398       .  A
C497        C636   1.478       .  S
C498        C824   1.400       .  A
C498        C499   1.401       .  A
C498        H503   1.084       .  S
C499        C827   1.403       .  A
C500        C501   1.402       .  A
C500        H504   1.084       .  S
C501        C502   1.400       .  A
C502        H505   1.085       .  S
C506        C543   1.457       .  S
C506        C561   1.463       .  S
C506        N524   1.346       .  A
N507        N524   1.323       .  A
N507        N529   1.321       .  A
N507       Co544   2.075       .  S
C508        C546   1.452       .  S
C508        H553   1.082       .  S
C508        N533   1.338       .  A
H509        C550   1.082       .  S
C510        C514   1.453       .  S
C510        H539   1.082       .  S
C510        N534   1.340       .  A
Co511       N529   2.092       .  S
Co511       N519   2.087       .  S
Co511       N551   2.085       .  S
Co511       N527   2.092       .  S
Co511      Cl555   2.444       .  S
N512        C550   1.340       .  A
N512        N519   1.321       .  A
N512       Co513   2.082       .  S
Co513       N516   2.074       .  S
Co513       N533   2.077       .  S
Co513       N520   2.082       .  S
Co513      Cl555   2.452       .  S
C514        C590   1.455       .  S
C514        N552   1.345       .  A
N515        N522   1.320       .  A
N515        N545   1.325       .  A
N515       Co548   2.080       .  S
N516        N534   1.320       .  A
N516        N552   1.321       .  A
N517        C546   1.350       .  A
N517        N527   1.327       .  A
H518        C543   1.082       .  S
N519        N540   1.326       .  A
N520        N538   1.320       .  A
N520        N525   1.322       .  A
C521        C549   1.453       .  S
C521        C588   1.459       .  S
C521        N525   1.347       .  A
N522        C537   1.333       .  A
N522       Co544   2.062       .  S
C523        C526   1.456       .  S
C523        H557   1.082       .  S
C523        N551   1.341       .  A
C526        C563   1.458       .  S
C526        N547   1.345       .  A
N527        N533   1.321       .  A
N528        C554   1.335       .  A
N528        N530   1.320       .  A
N528       Co544   2.072       .  S
N529        C543   1.342       .  A
N530        N558   1.324       .  A
N530       Co548   2.073       .  S
H531        C554   1.082       .  S
H532        C549   1.082       .  S
N534       Co548   2.074       .  S
N535        N547   1.321       .  A
N535        N551   1.320       .  A
N535       Co544   2.068       .  S
C536        C550   1.454       .  S
C536        C572   1.465       .  S
C536        N540   1.348       .  A
C537        C556   1.447       .  S
C537        H541   1.082       .  S
N538        C549   1.341       .  A
N538       Co548   2.078       .  S
C542        C554   1.451       .  S
C542        C581   1.452       .  S
C542        N558   1.344       .  A
Co544      Cl555   2.454       .  S
N545        C556   1.347       .  A
C546        C570   1.464       .  S
Co548      Cl555   2.445       .  S
C556        C579   1.452       .  S
C559        C560   1.405       .  A
C559        C629   1.481       .  S
C560        C561   1.403       .  A
C560        H565   1.083       .  S
C561        C562   1.399       .  A
C562        H566   1.085       .  S
C563        C889   1.399       .  A
C563        C564   1.398       .  A
C564        C886   1.402       .  A
C564        H567   1.084       .  S
C568        C573   1.406       .  A
C568        C606   1.483       .  S
C569        C895   1.405       .  A
C569        C570   1.401       .  A
C569        H574   1.085       .  S
C570        C898   1.401       .  A
C571        C572   1.401       .  A
C571        H575   1.084       .  S
C572        C573   1.401       .  A
C573        H576   1.084       .  S
C577        C578   1.398       .  A
C577        C599   1.468       .  S
C578        C579   1.395       .  A
C578        H583   1.085       .  S
C579        C580   1.400       .  A
C580        H584   1.084       .  S
C581        C907   1.400       .  A
C581        C582   1.393       .  A
C582        C904   1.397       .  A
C582        H585   1.085       .  S
C586        C591   1.401       .  A
C586        C646   1.479       .  S
C587        C913   1.403       .  A
C587        C588   1.398       .  A
C587        H592   1.083       .  S
C588        C916   1.399       .  A
C589        C590   1.399       .  A
C589        H593   1.085       .  S
C590        C591   1.397       .  A
C591        H594   1.084       .  S
C595        C596   1.407       .  A
C595        C600   1.390       .  A
C595        F602   1.358       .  S
C597        C923   1.405       .  A
C597        C598   1.391       .  A
C597        F604   1.358       .  S
C598        C926   1.407       .  A
C598        F603   1.358       .  S
C599        C600   1.403       .  A
C600        F601   1.358       .  S
C605        C933   1.408       .  A
C605        C610   1.401       .  A
C605        F612   1.358       .  S
C606        C607   1.406       .  A
C607        C608   1.396       .  A
C607        F614   1.358       .  S
C608        C609   1.406       .  A
C608        F613   1.358       .  S
C610        C936   1.406       .  A
C610        F611   1.358       .  S
C615        C943   1.407       .  A
C615        C620   1.400       .  A
C615        F622   1.358       .  S
C616        C617   1.405       .  A
C617        C618   1.395       .  A
C617        F624   1.358       .  S
C618        C619   1.409       .  A
C618        F623   1.358       .  S
C620        C946   1.406       .  A
C620        F621   1.358       .  S
C625        C953   1.406       .  A
C625        C957   1.395       .  A
C625        F632   1.358       .  S
C626        C627   1.406       .  A
C627        C628   1.401       .  A
C627        F634   1.358       .  S
C628        C629   1.407       .  A
C628        F633   1.358       .  S
C629        C630   1.406       .  A
F631        C957   1.358       .  S
C635        C636   1.407       .  A
C635        C640   1.397       .  A
C635        F642   1.358       .  S
C637        C963   1.407       .  A
C637        C638   1.395       .  A
C637        F644   1.358       .  S
C638        C966   1.406       .  A
C638        F643   1.358       .  S
C639        C640   1.406       .  A
C640        F641   1.358       .  S
C645        C646   1.407       .  A
C645        C650   1.394       .  A
C646        C647   1.407       .  A
C647        C648   1.395       .  A
C647        F654   1.358       .  S
C648        C649   1.407       .  A
C648        F653   1.358       .  S
C649        C650   1.406       .  A
F651        C977   1.358       .  S
F652        C972   1.358       .  S
C655        C656   1.403       .  A
C655        C976   1.477       .  S
C656        C657   1.396       .  A
C656        H661   1.084       .  S
C657        C713   1.454       .  S
C658        C659   1.396   1_554  A
C658        H662   1.085       .  S
C659        C660   1.398       .  A
C659        C703   1.456       .  S
C660        H663   1.084       .  S
C664        C669   1.403       .  A
C664        C966   1.477       .  S
C665        C666   1.397       .  A
C665        H670   1.085       .  S
C666        C673   1.459       .  S
C667        C668   1.399       .  A
C668        C669   1.399       .  A
C668        C693   1.458       .  S
C669        H672   1.085       .  S
C673        C710   1.451       .  S
C673        N691   1.347       .  A
N674        N691   1.325       .  A
N674        N696   1.321       .  A
N674       Co711   2.086   1_565  S
C675        C713   1.451       .  S
C675        H720   1.082       .  S
C675        N700   1.337       .  A
H676        C717   1.082       .  S
C677        C681   1.454       .  S
C677        H706   1.082       .  S
C677        N701   1.340       .  A
Co678       N696   2.076       .  S
Co678       N686   2.081       .  S
Co678       N718   2.084       .  S
Co678       N694   2.076       .  S
Co678      Cl722   2.451   1_565  S
N679        C717   1.340       .  A
N679        N686   1.321       .  A
N679       Co680   2.078   1_565  S
Co680       N683   2.071       .  S
Co680       N700   2.074   1_545  S
Co680       N687   2.080       .  S
Co680      Cl722   2.450       .  S
C681        C737   1.457       .  S
C681        N719   1.345       .  A
N682        N689   1.320       .  A
N682        N712   1.320       .  A
N682       Co715   2.069       .  S
N683        N701   1.320       .  A
N683        N719   1.322       .  A
N684        C713   1.346       .  A
N684        N694   1.323       .  A
H685        C710   1.082       .  S
N686        N707   1.323       .  A
N687        N705   1.320       .  A
N687        N692   1.324       .  A
C688        C716   1.454       .  S
C688        C739   1.460       .  S
C688        N692   1.347       .  A
N689        C704   1.341       .  A
N689       Co711   2.082       .  S
C690        C693   1.455       .  S
C690        H724   1.082       .  S
C690        N718   1.340       .  A
C693        N714   1.345       .  A
N694        N700   1.320       .  A
N695        C721   1.345       .  A
N695        N697   1.321       .  A
N695       Co711   2.100       .  S
N696        C710   1.339       .  A
N697        N725   1.321       .  A
N697       Co715   2.069       .  S
H698        C721   1.082       .  S
H699        C716   1.082       .  S
N701       Co715   2.080       .  S
N702        N714   1.323       .  A
N702        N718   1.321       .  A
N702       Co711   2.076   1_565  S
C703        C717   1.452       .  S
C703        N707   1.346       .  A
C704        C723   1.455       .  S
C704        H708   1.082       .  S
N705        C716   1.340       .  A
N705       Co715   2.082       .  S
C709        C721   1.462       .  S
C709        C730   1.465       .  S
C709        N725   1.344       .  A
Co711      Cl722   2.448       .  S
N712        C723   1.344       .  A
Co715      Cl722   2.449       .  S
C723        C728   1.457       .  S
C726        C727   1.401   1_554  A
C727        C728   1.397       .  A
C727        H732   1.085       .  S
C728        C729   1.399   1_556  A
C729        H733   1.085       .  S
C730        C731   1.405       .  A
C731        H734   1.084       .  S
C735        C740   1.406       .  A
C735        C943   1.480       .  S
C736        C737   1.399       .  A
C736        H741   1.085       .  S
C738        C739   1.397       .  A
C739        C740   1.400       .  A
C740        H743   1.085       .  S
C744        C781   1.460       .  S
C744        C826   1.463       .  S
C744        N762   1.344       .  A
N745        N762   1.319       .  A
N745        N767   1.320       .  A
N745       Co782   2.069       .  S
C746        C784   1.446       .  S
C746        H791   1.082       .  S
C746        N771   1.338       .  A
H747        C788   1.082       .  S
C748        C752   1.464   1_455  S
C748        H777   1.082       .  S
C748        N772   1.347       .  A
Co749       N767   2.092       .  S
Co749       N757   2.072   1_455  S
Co749       N789   2.089       .  S
Co749       N765   2.072   1_455  S
Co749      Cl793   2.453       .  S
N750        C788   1.339       .  A
N750        N757   1.321       .  A
N750       Co751   2.078       .  S
Co751       N754   2.061       .  S
Co751       N771   2.067       .  S
Co751       N758   2.066       .  S
Co751      Cl793   2.443   1_655  S
C752        C808   1.467       .  S
C752        N790   1.344       .  A
N753        N760   1.321       .  A
N753        N783   1.322       .  A
N753       Co786   2.072       .  S
N754        N772   1.319   1_655  A
N754        N790   1.319       .  A
N755        C784   1.346       .  A
N755        N765   1.321       .  A
H756        C781   1.082       .  S
N757        N778   1.321       .  A
N758        N776   1.319   1_655  A
N758        N763   1.319       .  A
C759        C787   1.460   1_655  S
C759        C810   1.463       .  S
C759        N763   1.344       .  A
N760        C775   1.341       .  A
N760       Co782   2.086       .  S
C761        C764   1.459       .  S
C761        H795   1.082       .  S
C761        N789   1.345       .  A
C764        C828   1.461       .  S
C764        N785   1.344       .  A
N765        N771   1.320       .  A
N766        C792   1.342       .  A
N766        N768   1.320       .  A
N766       Co782   2.083       .  S
N767        C781   1.345       .  A
N768        N796   1.322       .  A
N768       Co786   2.075       .  S
H769        C792   1.083       .  S
H770        C787   1.082       .  S
N772       Co786   2.100       .  S
N773        N785   1.319       .  A
N773        N789   1.320       .  A
N773       Co782   2.068       .  S
C774        C788   1.452       .  S
C774        C819   1.453       .  S
C774        N778   1.345       .  A
C775        C794   1.456       .  S
C775        H779   1.083       .  S
N776        C787   1.346       .  A
N776       Co786   2.089       .  S
C780        C792   1.455       .  S
C780        C801   1.459       .  S
C780        N796   1.345       .  A
Co782      Cl793   2.443       .  S
N783        C794   1.345       .  A
C784        C817   1.448       .  S
Co786      Cl793   2.452       .  S
C794        C799   1.459       .  S
C797        C802   1.403       .  A
C797        C936   1.480       .  S
C798        C799   1.402       .  A
C798        H803   1.084       .  S
C799        C800   1.399       .  A
C800        H804   1.084       .  S
C801        C802   1.398       .  A
C802        H805   1.085       .  S
C806        C811   1.398       .  A
C806        C946   1.483       .  S
C807        C808   1.406       .  A
C807        H812   1.084       .  S
C809        C810   1.403       .  A
C809        H813   1.084   1_655  S
C810        C811   1.399       .  A
C811        H814   1.084       .  S
C815        C816   1.398       .  A
C815        C923   1.469       .  S
C816        C817   1.391       .  A
C816        H821   1.085       .  S
C818        C819   1.397       .  A
C818        H822   1.085       .  S
C819        C820   1.396       .  A
C820        H823   1.085       .  S
C824        C829   1.398       .  A
C824        C963   1.478       .  S
C825        C826   1.401       .  A
C825        H830   1.084       .  S
C827        C828   1.402       .  A
C827        H831   1.084       .  S
C828        C829   1.400       .  A
C829        H832   1.085       .  S
C833        C870   1.457       .  S
C833        C888   1.463       .  S
C833        N851   1.346       .  A
N834        N851   1.323       .  A
N834        N856   1.321       .  A
N834       Co871   2.075       .  S
C835        C873   1.452       .  S
C835        H880   1.082       .  S
C835        N860   1.338       .  A
H836        C877   1.082       .  S
C837        C841   1.453       .  S
C837        H866   1.082       .  S
C837        N861   1.340       .  A
Co838       N856   2.092       .  S
Co838       N846   2.087       .  S
Co838       N878   2.085       .  S
Co838       N854   2.092       .  S
Co838      Cl882   2.444       .  S
N839        C877   1.340       .  A
N839        N846   1.321       .  A
N839       Co840   2.082       .  S
Co840       N843   2.074       .  S
Co840       N860   2.077       .  S
Co840       N847   2.082       .  S
Co840      Cl882   2.452       .  S
C841        C917   1.455       .  S
C841        N879   1.345       .  A
N842        N849   1.320       .  A
N842        N872   1.325       .  A
N842       Co875   2.080       .  S
N843        N861   1.320       .  A
N843        N879   1.321       .  A
N844        C873   1.350       .  A
N844        N854   1.327       .  A
H845        C870   1.082       .  S
N846        N867   1.326       .  A
N847        N865   1.320       .  A
N847        N852   1.322       .  A
C848        C876   1.453       .  S
C848        C915   1.459       .  S
C848        N852   1.347       .  A
N849        C864   1.333       .  A
N849       Co871   2.062       .  S
C850        C853   1.456       .  S
C850        H884   1.082       .  S
C850        N878   1.341       .  A
C853        C890   1.458       .  S
C853        N874   1.345       .  A
N854        N860   1.321       .  A
N855        C881   1.335       .  A
N855        N857   1.320       .  A
N855       Co871   2.072       .  S
N856        C870   1.342       .  A
N857        N885   1.324       .  A
N857       Co875   2.073       .  S
H858        C881   1.082       .  S
H859        C876   1.082       .  S
N861       Co875   2.074       .  S
N862        N874   1.321       .  A
N862        N878   1.320       .  A
N862       Co871   2.068       .  S
C863        C877   1.454       .  S
C863        C899   1.465       .  S
C863        N867   1.348       .  A
C864        C883   1.447       .  S
C864        H868   1.082       .  S
N865        C876   1.341       .  A
N865       Co875   2.078       .  S
C869        C881   1.451       .  S
C869        C908   1.452       .  S
C869        N885   1.344       .  A
Co871      Cl882   2.454       .  S
N872        C883   1.347       .  A
C873        C897   1.464       .  S
Co875      Cl882   2.445       .  S
C883        C906   1.452       .  S
C886        C887   1.405       .  A
C886        C956   1.481       .  S
C887        C888   1.403       .  A
C887        H892   1.083       .  S
C888        C889   1.399       .  A
C889        H893   1.085       .  S
C890        C891   1.398       .  A
C891        H894   1.084       .  S
C895        C900   1.406       .  A
C895        C933   1.483       .  S
C896        C897   1.401       .  A
C896        H901   1.085       .  S
C898        C899   1.401       .  A
C898        H902   1.084       .  S
C899        C900   1.401       .  A
C900        H903   1.084       .  S
C904        C905   1.398       .  A
C904        C926   1.468       .  S
C905        C906   1.395       .  A
C905        H910   1.085       .  S
C906        C907   1.400       .  A
C907        H911   1.084       .  S
C908        C909   1.393       .  A
C909        H912   1.085       .  S
C913        C918   1.401       .  A
C913        C973   1.479       .  S
C914        C915   1.398       .  A
C914        H919   1.083       .  S
C916        C917   1.399       .  A
C916        H920   1.085       .  S
C917        C918   1.397       .  A
C918        H921   1.084       .  S
C922        C923   1.407       .  A
C922        C927   1.389       .  A
C922        F929   1.358       .  S
C924        C925   1.391       .  A
C924        F931   1.358       .  S
C925        F930   1.358       .  S
C926        C927   1.403       .  A
C927        F928   1.358       .  S
C932        C937   1.401       .  A
C932        F939   1.358       .  S
C933        C934   1.406       .  A
C934        C935   1.396       .  A
C934        F941   1.358       .  S
C935        C936   1.406       .  A
C935        F940   1.358       .  S
C937        F938   1.358       .  S
C942        C947   1.400       .  A
C942        F949   1.358       .  S
C943        C944   1.405       .  A
C944        C945   1.395       .  A
C944        F951   1.358       .  S
C945        C946   1.409       .  A
C945        F950   1.358       .  S
C947        F948   1.358       .  S
C952        F959   1.358       .  S
C953        C954   1.406       .  A
C954        C955   1.401       .  A
C954        F961   1.358       .  S
C955        C956   1.407       .  A
C955        F960   1.358       .  S
C956        C957   1.406       .  A
C962        C963   1.407       .  A
C962        C967   1.397       .  A
C962        F969   1.358       .  S
C964        C965   1.395       .  A
C964        F971   1.358       .  S
C965        F970   1.358       .  S
C966        C967   1.406       .  A
C967        F968   1.358       .  S
C972        C973   1.407       .  A
C972        C977   1.394       .  A
C973        C974   1.407       .  A
C974        C975   1.395       .  A
C974        F981   1.358       .  S
C975        C976   1.407       .  A
C975        F980   1.358       .  S
C976        C977   1.406       .  A
