geometry optimzed in LAMMPS
_audit_creation_date              2020-12-01 
_audit_creation_method            'lammps2cif' 
_symmetry_space_group_name_H-M    'P1' 
_symmetry_Int_Tables_number       1 
_symmetry_cell_setting            triclinic 
loop_ 
_symmetry_equiv_pos_as_xyz 
  x,y,z 
_cell_length_a                    27.22905506 
_cell_length_b                    37.137818719233714 
_cell_length_c                    35.08953023048685 
_cell_angle_alpha                 90.09525290804471 
_cell_angle_beta                  88.18755739781876 
_cell_angle_gamma                 90.9787844180773 
loop_ 
_atom_site_label 
_atom_site_type_symbol 
_atom_site_fract_x 
_atom_site_fract_y 
_atom_site_fract_z 
_atom_site_charge 
O1          O  0.30361406  0.27958493  0.96260845    -0.75000
O2          O  0.27600037  0.21209409  0.04341806    -0.75100
O3          O  0.28857056  0.20723785  0.96643722    -0.75100
O4          O  0.29041800  0.28434086  0.03978258    -0.75200
O5          O  0.21008637  0.29190055  0.03302481    -0.75100
O6          O  0.20832152  0.21516931  0.95976337    -0.75100
O7          O  0.19561409  0.21970882  0.03707177    -0.75000
O8          O  0.22326465  0.28745979  0.95634053    -0.75100
Ni9        Ni  0.29252776  0.24556216  0.00329475     1.25400
Ni10       Ni  0.20648856  0.25376304  0.99629319     1.25400
C11         C  0.26801189  0.29457869  0.94610343     0.87200
C12         C  0.23132234  0.20508957  0.05385602     0.87100
C13         C  0.24812765  0.19885174  0.95063304     0.87100
C14         C  0.25037780  0.30051086  0.04876903     0.87300
C15         C  0.24996658  0.13860039  0.13809376     0.85900
C16         C  0.29137927  0.14759342  0.16527581    -0.54400
C17         C  0.29118323  0.12692905  0.19738909     0.08800
C18         C  0.24829695  0.09925613  0.19961499     0.19800
C19         C  0.25451069  0.09811865  0.13026902    -0.55100
C20         C  0.25376630  0.07730531  0.16240648     0.08900
C21         C  0.20249804  0.14209747  0.16281961    -0.54600
C22         C  0.20113525  0.12128400  0.19511060     0.09500
H23         H  0.31904709  0.16836551  0.15913400     0.14000
H24         H  0.24779496  0.08213222  0.22541060    -0.00300
H25         H  0.25949989  0.08712467  0.10174443     0.14300
H26         H  0.17314763  0.16009974  0.15623785     0.14100
C27         C  0.28382477  0.35835218  0.13654605     0.85900
C28         C  0.23992382  0.34974307  0.16364007    -0.54400
C29         C  0.23757494  0.37110755  0.19534181     0.08800
C30         C  0.28041826  0.39884158  0.19726206     0.19800
C31         C  0.27980277  0.39872039  0.12773025    -0.55100
C32         C  0.27788582  0.42025969  0.15953829     0.08900
C33         C  0.32896879  0.35546744  0.16128778    -0.54600
C34         C  0.32758408  0.37630563  0.19336188     0.09500
H35         H  0.21295226  0.32867013  0.15804463     0.14000
H36         H  0.27837056  0.41589437  0.22320432    -0.00300
H37         H  0.27862186  0.40915123  0.09889593     0.14300
H38         H  0.35965988  0.33826631  0.15382426     0.14100
C39         C  0.48927287  0.10952601  0.36262426     0.85900
C40         C  0.03033989  0.09994504  0.33509489    -0.54400
C41         C  0.03482757  0.12192608  0.30387313     0.08800
C42         C  0.49690956  0.15095137  0.30275174     0.19800
C43         C  0.49713103  0.14961281  0.37229619    -0.55100
C44         C  0.50150529  0.17150673  0.34085286     0.08900
C45         C  0.44409509  0.10848623  0.33782031    -0.54600
C46         C  0.44738843  0.13008043  0.30643259     0.09500
H47         H  0.05560409  0.07836221  0.34042951     0.14000
H48         H  0.49979648  0.16886673  0.27755154    -0.00300
H49         H  0.49973820  0.15953675  0.40129014     0.14300
H50         H  0.41254229  0.09105060  0.34423373     0.14100
C51         C  0.02911887  0.38914997  0.36294005     0.85900
C52         C  0.48763113  0.39739062  0.33212494    -0.54400
C53         C  0.48645127  0.37489424  0.30118432     0.08800
C54         C  0.02679913  0.34742698  0.30337488     0.19800
C55         C  0.02162837  0.34896250  0.37279940    -0.55100
C56         C  0.02089636  0.32682575  0.34143388     0.08900
C57         C  0.07617382  0.39074467  0.33784150    -0.54600
C58         C  0.07531269  0.36904799  0.30646918     0.09500
H59         H  0.46029080  0.41772863  0.33802113     0.14000
H60         H  0.02574347  0.32993547  0.27783878    -0.00300
H61         H  0.01878050  0.33904327  0.40187886     0.14300
H62         H  0.10711424  0.40839580  0.34401119     0.14100
O63         O  0.04855566  0.03336248  0.46260937    -0.75000
O64         O  0.03299157  0.46057848  0.53918590    -0.75100
O65         O  0.03836418  0.46056466  0.46179925    -0.75100
O66         O  0.04294467  0.03234985  0.53966055    -0.75200
O67         O  0.46269588  0.03782184  0.53980726    -0.75100
O68         O  0.45555298  0.46454315  0.45908411    -0.75100
O69         O  0.45079570  0.46451736  0.53618408    -0.75000
O70         O  0.46777207  0.03873274  0.46209960    -0.75100
Ni71       Ni  0.04446499  0.49678405  0.50069389     1.25400
Ni72       Ni  0.45584380  0.50124897  0.49777492     1.25400
C73         C  0.51118844  0.04811923  0.45011023     0.87200
C74         C  0.48890456  0.45000285  0.54954509     0.87100
C75         C  0.49536355  0.45028118  0.44644746     0.87100
C76         C  0.50443620  0.04720558  0.55298716     0.87300
C77         C  0.21210450  0.14164381  0.86261343     0.85900
C78         C  0.16657664  0.14480192  0.83816330    -0.54400
C79         C  0.16743870  0.12372216  0.80618081     0.08800
C80         C  0.21450000  0.10125341  0.80192417     0.19800
C81         C  0.21565037  0.10113996  0.87126489    -0.55100
C82         C  0.21694836  0.07970462  0.83932620     0.08900
C83         C  0.25578284  0.15005326  0.83513335    -0.54600
C84         C  0.25771087  0.12857688  0.80349035     0.09500
H85         H  0.13676310  0.16288567  0.84530569     0.14000
H86         H  0.21579786  0.08423791  0.77604040    -0.00300
H87         H  0.21698153  0.09061365  0.90004443     0.14300
H88         H  0.28390223  0.17012235  0.84126538     0.14100
C89         C  0.24975263  0.36304619  0.86362031     0.85900
C90         C  0.29702900  0.35987074  0.83862960    -0.54400
C91         C  0.29788483  0.38069072  0.80633060     0.08800
C92         C  0.25039228  0.40251393  0.80217898     0.19800
C93         C  0.24485209  0.40349292  0.87158040    -0.55100
C94         C  0.24491593  0.42436107  0.83951126     0.08900
C95         C  0.20825855  0.35379717  0.83662500    -0.54600
C96         C  0.20792463  0.37440385  0.80448836     0.09500
H97         H  0.32656284  0.34194908  0.84496343     0.14000
H98         H  0.25048822  0.41984148  0.77652113    -0.00300
H99         H  0.24002457  0.41445288  0.90013500     0.14300
H100        H  0.18130125  0.33254746  0.84275203     0.14100
C101        C  0.96899622  0.10865848  0.63803053     0.85900
C102        C  0.42330694  0.10710486  0.66376792    -0.54400
C103        C  0.42354280  0.12846474  0.69540433     0.08800
C104        C  0.96991705  0.15096738  0.69734959     0.19800
C105        C  0.97525421  0.14881429  0.62782641    -0.55100
C106        C  0.97603516  0.17114618  0.65898193     0.08900
C107        C  0.01057137  0.10094056  0.66538005    -0.54600
C108        C  0.01163863  0.12336688  0.69633108     0.09500
H109        H  0.39232000  0.08970082  0.65700033     0.14000
H110        H  0.97004095  0.16893806  0.72262707    -0.00300
H111        H  0.97980748  0.15848710  0.59872449     0.14300
H112        H  0.03700396  0.07974235  0.66047773     0.14100
C113        C  0.51156368  0.39037529  0.63802199     0.85900
C114        C  0.05703162  0.39067388  0.66244471    -0.54400
C115        C  0.05373139  0.36885624  0.69371860     0.08800
C116        C  0.50415167  0.34970383  0.69845058     0.19800
C117        C  0.50530159  0.35001277  0.62888634    -0.55100
C118        C  0.50159670  0.32839677  0.66061185     0.08900
C119        C  0.46755029  0.39928040  0.66465532    -0.54600
C120        C  0.46300811  0.37775571  0.69624713     0.09500
H121        H  0.08808584  0.40868325  0.65644829     0.14000
H122        H  0.50062354  0.33234543  0.72405588    -0.00300
H123        H  0.50498139  0.33959837  0.59997433     0.14300
H124        H  0.44214096  0.42064751  0.65880609     0.14100
C125        C  0.01366100  0.22808460  0.68380280    -0.13900
C126        C  0.98462905  0.21082928  0.65667153     0.08200
C127        C  0.46430572  0.23298473  0.63039848    -0.13900
C128        C  0.47028847  0.27066865  0.63036108    -0.13900
C129        C  0.49648692  0.28822557  0.65918453     0.08200
C130        C  0.02019329  0.26547934  0.68350766    -0.13900
H131        H  0.03163706  0.21261530  0.70528330     0.12200
H132        H  0.44306432  0.22033712  0.60833781     0.12200
H133        H  0.45341679  0.28608187  0.60829641     0.12200
H134        H  0.04314972  0.27774127  0.70474372     0.12200
C135        C  0.12070991  0.35994605  0.78677617    -0.13900
C136        C  0.16891999  0.37077733  0.77583356     0.08200
C137        C  0.17939660  0.37855124  0.73736368    -0.13900
C138        C  0.14256964  0.37649354  0.71064817    -0.13900
C139        C  0.09380397  0.36724515  0.72175463     0.08200
C140        C  0.08367919  0.35812179  0.76005239    -0.13900
H141        H  0.11099763  0.35401124  0.81627424     0.12200
H142        H  0.21611178  0.38599265  0.72762843     0.12200
H143        H  0.15267091  0.38225510  0.68120638     0.12200
H144        H  0.04697104  0.35074209  0.76990860     0.12200
C145        C  0.33400051  0.38943029  0.73946021    -0.13900
C146        C  0.34048460  0.38141715  0.77814161     0.08200
C147        C  0.38819056  0.37351472  0.78964618    -0.13900
C148        C  0.42769721  0.37259860  0.76321703    -0.13900
C149        C  0.42102772  0.38001777  0.72455481     0.08200
C150        C  0.37367697  0.38873448  0.71303888    -0.13900
H151        H  0.29822863  0.39549711  0.72913921     0.12200
H152        H  0.39541710  0.36828311  0.81925264     0.12200
H153        H  0.46355928  0.36645414  0.77333414     0.12200
H154        H  0.36692621  0.39413262  0.68335945     0.12200
C155        C  0.07813077  0.13003289  0.78986150    -0.13900
C156        C  0.12707169  0.12300028  0.77825024     0.08200
C157        C  0.13729234  0.11555986  0.73955437    -0.13900
C158        C  0.09977383  0.11516760  0.71321465    -0.13900
C159        C  0.05105697  0.12249418  0.72478153     0.08200
C160        C  0.04064799  0.12996641  0.76339300    -0.13900
H161        H  0.06852953  0.13522229  0.81949143     0.12200
H162        H  0.17449391  0.11091932  0.72922456     0.12200
H163        H  0.10921099  0.11005831  0.68351752     0.12200
H164        H  0.00339711  0.13527352  0.77327492     0.12200
C165        C  0.31521550  0.09692958  0.75804017    -0.13900
C166        C  0.29999109  0.12909208  0.77549494     0.08200
C167        C  0.32650686  0.16111923  0.76701151    -0.13900
C168        C  0.36709994  0.16093310  0.74143222    -0.13900
C169        C  0.38173485  0.12879214  0.72367562     0.08200
C170        C  0.35548627  0.09679527  0.73242198    -0.13900
H171        H  0.29682411  0.07157368  0.76477176     0.12200
H172        H  0.31555331  0.18641649  0.77975878     0.12200
H173        H  0.38631920  0.18603985  0.73491224     0.12200
H174        H  0.36653573  0.07143143  0.71984944     0.12200
C175        C  0.20340882  0.01807617  0.81093944    -0.13900
C176        C  0.22281845  0.03974922  0.83997055     0.08200
C177        C  0.24977097  0.02311015  0.86838721    -0.13900
C178        C  0.25838719  0.48563563  0.86894719    -0.13900
C179        C  0.23728930  0.46399123  0.84065448     0.08200
C180        C  0.20807329  0.48034100  0.81358662    -0.13900
H181        H  0.18132665  0.02963011  0.78913688     0.12200
H182        H  0.26591687  0.03891547  0.89085692     0.12200
H183        H  0.28132802  0.47381055  0.89006580     0.12200
H184        H  0.19029318  0.46429518  0.79204281     0.12200
C185        C  0.51832553  0.41497774  0.60366870    -0.17000
C186        C  0.48216142  0.42253004  0.57993923    -0.32200
H187        H  0.05500052  0.42717618  0.59863438     0.12000
H188        H  0.44596379  0.41034030  0.58477748     0.12600
C189        C  0.00619589  0.07443714  0.58254883    -0.17000
C190        C  0.96662331  0.08325332  0.60423677    -0.32200
H191        H  0.04191498  0.08613603  0.58870407     0.12000
H192        H  0.43254320  0.07186169  0.59869164     0.12600
C193        C  0.03245047  0.41427481  0.39685943    -0.17000
C194        C  0.99336622  0.42293955  0.41907649    -0.32200
H195        H  0.56608743  0.43028866  0.39737798     0.12000
H196        H  0.95760342  0.41101210  0.41347942     0.12600
C197        C  0.48219753  0.08453765  0.39670855    -0.17000
C198        C  0.51838007  0.07591186  0.42000804    -0.32200
H199        H  0.94512713  0.07066527  0.40104025     0.12000
H200        H  0.55490259  0.08750105  0.41502677     0.12600
C201        C  0.48884575  0.23239226  0.37170803    -0.13900
C202        C  0.51048217  0.21123483  0.34265833     0.08200
C203        C  0.03419243  0.22834772  0.31440481    -0.13900
C204        C  0.03989998  0.26578233  0.31469509    -0.13900
C205        C  0.01670630  0.28671808  0.34317638     0.08200
C206        C  0.49420693  0.27005403  0.37107160    -0.13900
H207        H  0.46621646  0.21996756  0.39412694     0.12200
H208        H  0.05290049  0.21322309  0.29207634     0.12200
H209        H  0.06305413  0.27821309  0.29262164     0.12200
H210        H  0.47553651  0.28563987  0.39303718     0.12200
C211        C  0.14790340  0.36199726  0.21261106    -0.13900
C212        C  0.19628784  0.36876400  0.22400226     0.08200
C213        C  0.20483766  0.37403470  0.26280490    -0.13900
C214        C  0.16579072  0.37310102  0.28964454    -0.13900
C215        C  0.11716331  0.36736837  0.27820463     0.08200
C216        C  0.10875125  0.36139071  0.23941655    -0.13900
H217        H  0.14008511  0.35829076  0.18279024     0.12200
H218        H  0.24179756  0.37859816  0.27248103     0.12200
H219        H  0.17381025  0.37688912  0.31940303     0.12200
H220        H  0.07181730  0.35746922  0.22948405     0.12200
C221        C  0.39386648  0.34430303  0.22800660    -0.13900
C222        C  0.36774508  0.37599685  0.22145281     0.08200
C223        C  0.38121889  0.40730738  0.24121402    -0.13900
C224        C  0.42022283  0.40723068  0.26629774    -0.13900
C225        C  0.44634017  0.37553263  0.27294376     0.08200
C226        C  0.43248083  0.34405345  0.25343292    -0.13900
H227        H  0.38390280  0.31936762  0.21398625     0.12200
H228        H  0.36238495  0.43219985  0.23682710     0.12200
H229        H  0.43008536  0.43222697  0.28018622     0.12200
H230        H  0.45050272  0.31883290  0.25840222     0.12200
C231        C  0.16416417  0.11156111  0.26139753    -0.13900
C232        C  0.15812751  0.12021288  0.22283162     0.08200
C233        C  0.11054502  0.12813640  0.21103556    -0.13900
C234        C  0.07068269  0.12843840  0.23717665    -0.13900
C235        C  0.07692088  0.12022659  0.27570921     0.08200
C236        C  0.12414148  0.11149562  0.28743942    -0.13900
H237        H  0.19987603  0.10564771  0.27198340     0.12200
H238        H  0.10373520  0.13388887  0.18147290     0.12200
H239        H  0.03490977  0.13474649  0.22694983     0.12200
H240        H  0.13055716  0.10560919  0.31705902     0.12200
C241        C  0.32037889  0.12325577  0.26438074    -0.13900
C242        C  0.33080341  0.12939356  0.22556176     0.08200
C243        C  0.37958874  0.13741691  0.21367469    -0.13900
C244        C  0.41713790  0.13869417  0.23994959    -0.13900
C245        C  0.40696778  0.13176519  0.27873234     0.08200
C246        C  0.35784781  0.12469284  0.29067088    -0.13900
H247        H  0.28322665  0.11773611  0.27461917     0.12200
H248        H  0.38912460  0.14176374  0.18382865     0.12200
H249        H  0.45413716  0.14406652  0.22948998     0.12200
H250        H  0.34805071  0.12030994  0.32044019     0.12200
C251        C  0.28589837  0.02068852  0.19040654    -0.13900
C252        C  0.26032952  0.03759974  0.16155260     0.08200
C253        C  0.24155643  0.01636974  0.13196711    -0.13900
C254        C  0.24399311  0.47649421  0.12995897    -0.13900
C255        C  0.27201184  0.46021793  0.15806961     0.08200
C256        C  0.29365898  0.48242510  0.18549927    -0.13900
H257        H  0.30190953  0.03624442  0.21315002     0.12200
H258        H  0.22105474  0.02853068  0.10955557     0.12200
H259        H  0.22615392  0.46024038  0.10863564     0.12200
H260        H  0.31609370  0.47117826  0.20711413     0.12200
C261        C  0.22048073  0.18076763  0.08652170    -0.17000
C262        C  0.25569672  0.16092279  0.10193788    -0.35400
H263        H  0.18312816  0.17994031  0.09802480     0.12000
H264        H  0.29195428  0.16084269  0.08802568     0.12600
C265        C  0.24956915  0.32880620  0.07850523    -0.17000
C266        C  0.28702115  0.33379810  0.10207206    -0.32200
H267        H  0.21602505  0.34382941  0.08322888     0.12000
H268        H  0.31986656  0.31788183  0.09782030     0.12600
C269        C  0.24813084  0.17070470  0.92059430    -0.17000
C270        C  0.21008300  0.16607875  0.89733539    -0.32200
H271        H  0.28138505  0.15544687  0.91546429     0.12000
H272        H  0.17750487  0.18219336  0.90203106     0.12600
C273        C  0.27913194  0.31954267  0.91403356    -0.17000
C274        C  0.24434493  0.34046510  0.89963528    -0.32200
H275        H  0.31625764  0.31989337  0.90209973     0.12000
H276        H  0.20839412  0.34085206  0.91399859     0.12600
O277        O  0.30346029  0.78123120  0.96165959    -0.75000
O278        O  0.27602486  0.71370455  0.04239304    -0.75100
O279        O  0.28787190  0.70903136  0.96554077    -0.75100
O280        O  0.29153304  0.78611406  0.03893969    -0.75200
O281        O  0.21135900  0.79441823  0.03231857    -0.75100
O282        O  0.20754038  0.71695169  0.95934000    -0.75100
O283        O  0.19568731  0.72213215  0.03670827    -0.75000
O284        O  0.22308746  0.78917957  0.95552857    -0.75100
Ni285      Ni  0.29256996  0.74727390  0.00236731     1.25400
Ni286      Ni  0.20655765  0.75591606  0.99577508     1.25400
C287        C  0.26778731  0.79611265  0.94513665     0.87200
C288        C  0.23133225  0.70688214  0.05291711     0.87100
C289        C  0.24728708  0.70054482  0.95003612     0.87100
C290        C  0.25192311  0.80282704  0.04790589     0.87300
C291        C  0.24920346  0.63710137  0.13421135     0.85900
C292        C  0.29183453  0.64527963  0.16052796    -0.54400
C293        C  0.29173072  0.62480112  0.19274854     0.08800
C294        C  0.24806833  0.59779356  0.19572983     0.19800
C295        C  0.25198057  0.59646723  0.12628449    -0.55100
C296        C  0.25179999  0.57567516  0.15844620     0.08900
C297        C  0.20277431  0.64156192  0.15993264    -0.54600
C298        C  0.20150514  0.62082622  0.19229069     0.09500
H299        H  0.31976638  0.66577124  0.15403750     0.14000
H300        H  0.24806452  0.58058170  0.22143146    -0.00300
H301        H  0.25588860  0.58534706  0.09773151     0.14300
H302        H  0.17431599  0.66047880  0.15405694     0.14100
C303        C  0.28591182  0.86065209  0.13617760     0.85900
C304        C  0.24144236  0.85169061  0.16265912    -0.54400
C305        C  0.23865540  0.87240687  0.19481481     0.08800
C306        C  0.28149482  0.89988883  0.19786275     0.19800
C307        C  0.28227866  0.90125885  0.12833331    -0.55100
C308        C  0.27976351  0.92210255  0.16072414     0.08900
C309        C  0.33064009  0.85723741  0.16142324    -0.54600
C310        C  0.32869105  0.87754433  0.19393903     0.09500
H311        H  0.21426665  0.83099281  0.15626138     0.14000
H312        H  0.27888071  0.91623417  0.22426615    -0.00300
H313        H  0.28176710  0.91229426  0.09973073     0.14300
H314        H  0.36151436  0.84024214  0.15388823     0.14100
C315        C  0.48613078  0.60929235  0.36069247     0.85900
C316        C  0.03383947  0.60333546  0.33596331    -0.54400
C317        C  0.03830689  0.62560173  0.30486529     0.08800
C318        C  0.49455908  0.65124047  0.30128115     0.19800
C319        C  0.49281149  0.64940395  0.37084377    -0.55100
C320        C  0.49759485  0.67163769  0.33966368     0.08900
C321        C  0.44165345  0.60790317  0.33512319    -0.54600
C322        C  0.44542336  0.62976448  0.30390889     0.09500
H323        H  0.05915806  0.58178195  0.34120387     0.14000
H324        H  0.49784051  0.66921723  0.27613461    -0.00300
H325        H  0.49461508  0.65906260  0.39998507     0.14300
H326        H  0.41028239  0.59010247  0.34088151     0.14100
C327        C  0.02806984  0.89213637  0.36026412     0.85900
C328        C  0.48699611  0.89814106  0.33455360    -0.54400
C329        C  0.48563891  0.87581310  0.30347495     0.08800
C330        C  0.02671881  0.84935751  0.30151377     0.19800
C331        C  0.02176860  0.85212886  0.37093096    -0.55100
C332        C  0.02146875  0.82946238  0.34007872     0.08900
C333        C  0.07500869  0.89406590  0.33505152    -0.54600
C334        C  0.07460006  0.87179636  0.30413026     0.09500
H335        H  0.45990695  0.91864210  0.34051286     0.14000
H336        H  0.02640108  0.83132060  0.27635382    -0.00300
H337        H  0.01924798  0.84269466  0.40020614     0.14300
H338        H  0.10566671  0.91211836  0.34087809     0.14100
O339        O  0.05025175  0.53351982  0.46229427    -0.75000
O340        O  0.03064845  0.95960583  0.53837647    -0.75100
O341        O  0.03627990  0.96072207  0.46096818    -0.75100
O342        O  0.04472522  0.53350891  0.53929424    -0.75200
O343        O  0.46208095  0.53738897  0.53684110    -0.75100
O344        O  0.45610074  0.96575663  0.46138089    -0.75100
O345        O  0.45156141  0.96475197  0.53848364    -0.75000
O346        O  0.46644276  0.53754428  0.45916311    -0.75100
Ni347      Ni  0.04249666  0.99622379  0.50047527     1.25400
Ni348      Ni  0.45665041  0.00202984  0.50043090     1.25400
C349        C  0.50966781  0.54724588  0.44717674     0.87200
C350        C  0.48967144  0.94987379  0.55153568     0.87100
C351        C  0.49571853  0.95127969  0.44872123     0.87100
C352        C  0.50387565  0.54673364  0.55002023     0.87300
C353        C  0.21283593  0.64170106  0.86244442     0.85900
C354        C  0.16766367  0.64433436  0.83757888    -0.54400
C355        C  0.16886172  0.62264045  0.80608783     0.08800
C356        C  0.21580889  0.60005741  0.80265409     0.19800
C357        C  0.21627276  0.60136301  0.87205653    -0.55100
C358        C  0.21774770  0.57933499  0.84059668     0.08900
C359        C  0.25689252  0.64949527  0.83498914    -0.54600
C360        C  0.25914656  0.62736486  0.80376082     0.09500
H361        H  0.13783568  0.66260640  0.84403573     0.14000
H362        H  0.21696015  0.58240005  0.77723947    -0.00300
H363        H  0.21722617  0.59131405  0.90105406     0.14300
H364        H  0.28483509  0.66977385  0.84082002     0.14100
C365        C  0.24986386  0.86351564  0.86188556     0.85900
C366        C  0.29715679  0.85939988  0.83721378    -0.54400
C367        C  0.29907058  0.87995676  0.80478928     0.08800
C368        C  0.25218610  0.90248708  0.80006839     0.19800
C369        C  0.24590704  0.90408076  0.86943700    -0.55100
C370        C  0.24675339  0.92475204  0.83716725     0.08900
C371        C  0.20836295  0.85467917  0.83480433    -0.54600
C372        C  0.20889280  0.87509911  0.80252343     0.09500
H373        H  0.32581397  0.84083014  0.84373649     0.14000
H374        H  0.25277798  0.91946973  0.77414819    -0.00300
H375        H  0.24070968  0.91521533  0.89788015     0.14300
H376        H  0.18038957  0.83416502  0.84110326     0.14100
C377        C  0.97115933  0.61034291  0.63710534     0.85900
C378        C  0.42404223  0.60436221  0.66293785    -0.54400
C379        C  0.42448581  0.62595797  0.69440184     0.08800
C380        C  0.97287390  0.65173942  0.69709066     0.19800
C381        C  0.97683512  0.65066154  0.62752966    -0.55100
C382        C  0.97795349  0.67253533  0.65905979     0.08900
C383        C  0.01335096  0.60240162  0.66381737    -0.54600
C384        C  0.01475908  0.62431413  0.69512896     0.09500
H385        H  0.39283111  0.58717128  0.65621043     0.14000
H386        H  0.97329114  0.66925597  0.72268733    -0.00300
H387        H  0.98053831  0.66076279  0.59854686     0.14300
H388        H  0.03969209  0.58123856  0.65840532     0.14100
C389        C  0.51356968  0.88682625  0.63730887     0.85900
C390        C  0.05512810  0.89251953  0.66262065    -0.54400
C391        C  0.05209496  0.87118846  0.69417944     0.08800
C392        C  0.50592902  0.84546076  0.69724093     0.19800
C393        C  0.50676550  0.84664625  0.62763772    -0.55100
C394        C  0.50324294  0.82467631  0.65908422     0.08900
C395        C  0.46998476  0.89574534  0.66430051    -0.54600
C396        C  0.46510126  0.87380824  0.69552663     0.09500
H397        H  0.08643740  0.91019082  0.65614802     0.14000
H398        H  0.50226637  0.82775892  0.72257342    -0.00300
H399        H  0.50637140  0.83656696  0.59859417     0.14300
H400        H  0.44510725  0.91756840  0.65895626     0.14100
C401        C  0.01244129  0.72989633  0.68553952    -0.13900
C402        C  0.98524078  0.71237143  0.65744123     0.08200
C403        C  0.46674198  0.72942767  0.62837128    -0.13900
C404        C  0.47266713  0.76707513  0.62834893    -0.13900
C405        C  0.49898676  0.78455686  0.65712892     0.08200
C406        C  0.01783587  0.76736055  0.68573461    -0.13900
H407        H  0.03013145  0.71462137  0.70730644     0.12200
H408        H  0.44512004  0.71678529  0.60652973     0.12200
H409        H  0.45541421  0.78252521  0.60649996     0.12200
H410        H  0.03963917  0.77974996  0.70760379     0.12200
C411        C  0.12020891  0.86554150  0.78675784    -0.13900
C412        C  0.16914011  0.87259067  0.77449506     0.08200
C413        C  0.17955544  0.87755401  0.73549095    -0.13900
C414        C  0.14185326  0.87596243  0.70937092    -0.13900
C415        C  0.09264340  0.86982517  0.72170522     0.08200
C416        C  0.08248183  0.86408073  0.76065968    -0.13900
H417        H  0.11075235  0.86211739  0.81675013     0.12200
H418        H  0.21684907  0.88229989  0.72505474     0.12200
H419        H  0.15144271  0.87951318  0.67942843     0.12200
H420        H  0.04528161  0.85960221  0.77130165     0.12200
C421        C  0.33656093  0.88847158  0.73841754    -0.13900
C422        C  0.34206158  0.87951804  0.77694018     0.08200
C423        C  0.38902149  0.86942903  0.78849882    -0.13900
C424        C  0.42866796  0.86749732  0.76224540    -0.13900
C425        C  0.42300232  0.87625586  0.72377100     0.08200
C426        C  0.37640467  0.88691250  0.71226088    -0.13900
H427        H  0.30132887  0.89594433  0.72796030     0.12200
H428        H  0.39567930  0.86329254  0.81799011     0.12200
H429        H  0.46381239  0.85962423  0.77241568     0.12200
H430        H  0.37024196  0.89321899  0.68270657     0.12200
C431        C  0.08001053  0.62891849  0.78912002    -0.13900
C432        C  0.12896058  0.62169106  0.77783450     0.08200
C433        C  0.13965786  0.61435077  0.73917635    -0.13900
C434        C  0.10255351  0.61468529  0.71246565    -0.13900
C435        C  0.05387672  0.62255659  0.72372101     0.08200
C436        C  0.04301557  0.62954225  0.76235326    -0.13900
H437        H  0.07005608  0.63388604  0.81873197     0.12200
H438        H  0.17692696  0.60938849  0.72919529     0.12200
H439        H  0.11229460  0.60976717  0.68278564     0.12200
H440        H  0.00575209  0.63504476  0.77204936     0.12200
C441        C  0.31530405  0.59549451  0.75712078    -0.13900
C442        C  0.30133812  0.62758454  0.77543525     0.08200
C443        C  0.32881153  0.65927400  0.76718538    -0.13900
C444        C  0.36907448  0.65880351  0.74121058    -0.13900
C445        C  0.38254342  0.62671556  0.72273820     0.08200
C446        C  0.35518187  0.59509561  0.73108270    -0.13900
H447        H  0.29633009  0.57029915  0.76350409     0.12200
H448        H  0.31890162  0.68457899  0.78041569     0.12200
H449        H  0.38900748  0.68368783  0.73502937     0.12200
H450        H  0.36516972  0.56971793  0.71801087     0.12200
C451        C  0.20064528  0.51752891  0.81439277    -0.13900
C452        C  0.22261839  0.53938997  0.84207974     0.08200
C453        C  0.25120716  0.52294983  0.86961487    -0.13900
C454        C  0.25764001  0.98591158  0.86747719    -0.13900
C455        C  0.23900117  0.96443319  0.83802253     0.08200
C456        C  0.21161130  0.98095697  0.80987425    -0.13900
H457        H  0.17738567  0.52910001  0.79334982     0.12200
H458        H  0.26916063  0.53902065  0.89103450     0.12200
H459        H  0.27916636  0.97406080  0.88947475     0.12200
H460        H  0.19555756  0.96510145  0.78738086     0.12200
C461        C  0.52012749  0.91195469  0.60330782    -0.17000
C462        C  0.48310759  0.92155704  0.58114851    -0.32200
H463        H  0.05200570  0.92864923  0.59892764     0.12000
H464        H  0.44653516  0.91023900  0.58665083     0.12600
C465        C  0.00791873  0.57633478  0.58130706    -0.17000
C466        C  0.96839662  0.58535020  0.60297279    -0.32200
H467        H  0.04370404  0.58794906  0.58742348     0.12000
H468        H  0.43355299  0.56733973  0.59906520     0.12600
C469        C  0.03066164  0.91752626  0.39390262    -0.17000
C470        C  0.99165108  0.92465249  0.41683832    -0.32200
H471        H  0.56624102  0.92986961  0.40016714     0.12000
H472        H  0.95629389  0.91196743  0.41145428     0.12600
C473        C  0.47943363  0.58390832  0.39441616    -0.17000
C474        C  0.51608398  0.57529252  0.41734577    -0.32200
H475        H  0.94706223  0.57332542  0.40142871     0.12000
H476        H  0.55234880  0.58733788  0.41241844     0.12600
C477        C  0.48536511  0.73231330  0.37160490    -0.13900
C478        C  0.50652715  0.71144142  0.34205280     0.08200
C479        C  0.03758564  0.73076388  0.31614991    -0.13900
C480        C  0.04288036  0.76819965  0.31568533    -0.13900
C481        C  0.01807650  0.78947098  0.34294882     0.08200
C482        C  0.49153323  0.76998689  0.37184818    -0.13900
H483        H  0.46264671  0.71968226  0.39383650     0.12200
H484        H  0.05734917  0.71530653  0.29464229     0.12200
H485        H  0.06669387  0.78044102  0.29388837     0.12200
H486        H  0.47331613  0.78534150  0.39422847     0.12200
C487        C  0.14830763  0.86507651  0.21076230    -0.13900
C488        C  0.19671625  0.87016972  0.22287940     0.08200
C489        C  0.20473750  0.87441662  0.26190294    -0.13900
C490        C  0.16519963  0.87413824  0.28828014    -0.13900
C491        C  0.11667022  0.86987384  0.27617531     0.08200
C492        C  0.10865853  0.86493696  0.23717494    -0.13900
H493        H  0.14097171  0.86227670  0.18074948     0.12200
H494        H  0.24166350  0.87777925  0.27209059     0.12200
H495        H  0.17268459  0.87723274  0.31822865     0.12200
H496        H  0.07170737  0.86210454  0.22691556     0.12200
C497        C  0.39475950  0.84570646  0.22883932    -0.13900
C498        C  0.36842942  0.87725234  0.22240985     0.08200
C499        C  0.38096896  0.90841850  0.24290898    -0.13900
C500        C  0.41932807  0.90823108  0.26863207    -0.13900
C501        C  0.44572238  0.87664131  0.27506944     0.08200
C502        C  0.43263985  0.84535381  0.25487737    -0.13900
H503        H  0.38548090  0.82091929  0.21427396     0.12200
H504        H  0.36209611  0.93315603  0.23862995     0.12200
H505        H  0.42849449  0.93309678  0.28307549     0.12200
H506        H  0.45068429  0.82013280  0.25971190     0.12200
C507        C  0.16558246  0.61037045  0.25917285    -0.13900
C508        C  0.15956320  0.62146915  0.22127176     0.08200
C509        C  0.11286284  0.63355342  0.21135118    -0.13900
C510        C  0.07405438  0.63503468  0.23835922    -0.13900
C511        C  0.08009002  0.62394200  0.27611493     0.08200
C512        C  0.12653866  0.61163091  0.28615629    -0.13900
H513        H  0.20049647  0.60115069  0.26858276     0.12200
H514        H  0.10551362  0.64141611  0.18247046     0.12200
H515        H  0.03905098  0.64427762  0.22913171     0.12200
H516        H  0.13320621  0.60354161  0.31512642     0.12200
C517        C  0.31962803  0.62256284  0.26006818    -0.13900
C518        C  0.33092173  0.62784384  0.22124069     0.08200
C519        C  0.37990614  0.63588809  0.20987192    -0.13900
C520        C  0.41683946  0.63768116  0.23671512    -0.13900
C521        C  0.40578884  0.63121723  0.27549276     0.08200
C522        C  0.35644816  0.62437086  0.28685335    -0.13900
H523        H  0.28224562  0.61738418  0.26994043     0.12200
H524        H  0.39003113  0.63985429  0.18006835     0.12200
H525        H  0.45408277  0.64304353  0.22675231     0.12200
H526        H  0.34602348  0.62042741  0.31658154     0.12200
C527        C  0.28731246  0.51968408  0.18528231    -0.13900
C528        C  0.25877214  0.53591192  0.15770237     0.08200
C529        C  0.23750849  0.51394295  0.12975110    -0.13900
C530        C  0.24813195  0.97901982  0.13141918    -0.13900
C531        C  0.27365510  0.96203543  0.16043389     0.08200
C532        C  0.29227373  0.98344312  0.18994087    -0.13900
H533        H  0.30538703  0.53586383  0.20655821     0.12200
H534        H  0.21506518  0.52561892  0.10820501     0.12200
H535        H  0.23228270  0.96342958  0.10866654     0.12200
H536        H  0.31236246  0.97179732  0.21250663     0.12200
C537        C  0.22032788  0.68190703  0.08492429    -0.17000
C538        C  0.25450612  0.65975210  0.09821102    -0.35400
H539        H  0.18363280  0.68250422  0.09759440     0.12000
H540        H  0.28984302  0.65846390  0.08300166     0.12600
C541        C  0.25182828  0.83149636  0.07748834    -0.17000
C542        C  0.28939422  0.83659551  0.10108883    -0.32200
H543        H  0.21834717  0.84655928  0.08231499     0.12000
H544        H  0.32224678  0.82071299  0.09675493     0.12600
C545        C  0.24748392  0.67202324  0.92029691    -0.17000
C546        C  0.21000233  0.66692412  0.89663955    -0.32200
H547        H  0.28079856  0.65670764  0.91572814     0.12000
H548        H  0.17732099  0.68305851  0.90068439     0.12600
C549        C  0.27880365  0.82072403  0.91288299    -0.17000
C550        C  0.24393330  0.84126589  0.89803632    -0.32200
H551        H  0.31607231  0.82118577  0.90129182     0.12000
H552        H  0.20784664  0.84170743  0.91217304     0.12600
O553        O  0.80651948  0.28097833  0.96208773    -0.75000
O554        O  0.77841385  0.21428972  0.04358367    -0.75100
O555        O  0.78995711  0.20895105  0.96652532    -0.75100
O556        O  0.79497296  0.28650262  0.03934994    -0.75200
O557        O  0.71473035  0.29494768  0.03322771    -0.75100
O558        O  0.70979770  0.21764148  0.96029757    -0.75100
O559        O  0.69814557  0.22288564  0.03770332    -0.75000
O560        O  0.72619316  0.28956329  0.95652362    -0.75100
Ni561      Ni  0.79533857  0.24738898  0.00313160     1.25400
Ni562      Ni  0.70938728  0.25651259  0.99675353     1.25400
C563        C  0.77085096  0.29604352  0.94573883     0.87200
C564        C  0.73364475  0.20774453  0.05416869     0.87100
C565        C  0.74926561  0.20096731  0.95088078     0.87100
C566        C  0.75550724  0.30331194  0.04848778     0.87300
C567        C  0.75024428  0.13832515  0.13598796     0.85900
C568        C  0.79144606  0.14680249  0.16349948    -0.54400
C569        C  0.79094715  0.12563026  0.19521156     0.08800
C570        C  0.74820242  0.09787068  0.19665556     0.19800
C571        C  0.75487797  0.09796104  0.12727764    -0.55100
C572        C  0.75403649  0.07655095  0.15898308     0.08900
C573        C  0.70255601  0.14132585  0.16064232    -0.54600
C574        C  0.70106293  0.11999894  0.19257167     0.09500
H575        H  0.81909406  0.16772969  0.15796848     0.14000
H576        H  0.74764898  0.08035843  0.22214088    -0.00300
H577        H  0.76022840  0.08751518  0.09855380     0.14300
H578        H  0.67325274  0.15947730  0.15441494     0.14100
C579        C  0.78967082  0.36102588  0.13647176     0.85900
C580        C  0.74531645  0.35151677  0.16284691    -0.54400
C581        C  0.74193890  0.37217382  0.19500313     0.08800
C582        C  0.78410239  0.40016436  0.19817778     0.19800
C583        C  0.78517089  0.40159066  0.12867054    -0.55100
C584        C  0.78202295  0.42235523  0.16108229     0.08900
C585        C  0.83431873  0.35801575  0.16183367    -0.54600
C586        C  0.83162636  0.37835813  0.19425291     0.09500
H587        H  0.71861791  0.33050642  0.15637602     0.14000
H588        H  0.78127798  0.41640166  0.22466836    -0.00300
H589        H  0.78447048  0.41265198  0.10008448     0.14300
H590        H  0.86542550  0.34105228  0.15479632     0.14100
C591        C  0.98682340  0.10883782  0.36225228     0.85900
C592        C  0.53239582  0.10016009  0.33514315    -0.54400
C593        C  0.53697176  0.12207933  0.30377211     0.08800
C594        C  0.99411753  0.15028426  0.30250081     0.19800
C595        C  0.99362166  0.14893960  0.37203574    -0.55100
C596        C  0.99760160  0.17088335  0.34066699     0.08900
C597        C  0.94180419  0.10721439  0.33724142    -0.54600
C598        C  0.94506171  0.12881877  0.30583861     0.09500
H599        H  0.55720052  0.07825422  0.34032991     0.14000
H600        H  0.99693922  0.16817533  0.27727783    -0.00300
H601        H  0.99575151  0.15885521  0.40106733     0.14300
H602        H  0.91045351  0.08953853  0.34352701     0.14100
C603        C  0.52961249  0.39021505  0.35915092     0.85900
C604        C  0.98775256  0.39786027  0.33576783    -0.54400
C605        C  0.98580086  0.37558345  0.30478044     0.08800
C606        C  0.52890658  0.34766758  0.30007842     0.19800
C607        C  0.52422212  0.35008558  0.36954493    -0.55100
C608        C  0.52426653  0.32747787  0.33856823     0.08900
C609        C  0.57642287  0.39272878  0.33384221    -0.54600
C610        C  0.57646181  0.37052097  0.30286189     0.09500
H611        H  0.96130985  0.41890348  0.34142718     0.14000
H612        H  0.52900879  0.32977007  0.27482079    -0.00300
H613        H  0.52207499  0.34056686  0.39878925     0.14300
H614        H  0.60683354  0.41097208  0.33978258     0.14100
O615        O  0.54912685  0.03334794  0.46345082    -0.75000
O616        O  0.53221149  0.45936565  0.53732492    -0.75100
O617        O  0.53706767  0.45981762  0.45957377    -0.75100
O618        O  0.54410809  0.03258271  0.54054169    -0.75200
O619        O  0.96154726  0.03781158  0.53873457    -0.75100
O620        O  0.95694891  0.46593056  0.46087699    -0.75100
O621        O  0.95164934  0.46614142  0.53769258    -0.75000
O622        O  0.96721666  0.03904475  0.46121958    -0.75100
Ni623      Ni  0.54305210  0.49577324  0.49872864     1.25400
Ni624      Ni  0.95735424  0.50279126  0.49921301     1.25400
C625        C  0.01067008  0.04820487  0.44927610     0.87200
C626        C  0.98953777  0.45126416  0.55099837     0.87100
C627        C  0.99655669  0.45109138  0.44877771     0.87100
C628        C  0.00328044  0.04690248  0.55213259     0.87300
C629        C  0.71289967  0.14287698  0.86317022     0.85900
C630        C  0.66689080  0.14495234  0.83901629    -0.54400
C631        C  0.66771373  0.12310054  0.80759192     0.08800
C632        C  0.71496982  0.10092464  0.80359500     0.19800
C633        C  0.71730433  0.10264196  0.87290321    -0.55100
C634        C  0.71818534  0.08046894  0.84159394     0.08900
C635        C  0.75601557  0.15097431  0.83498853    -0.54600
C636        C  0.75774429  0.12873031  0.80388565     0.09500
H637        H  0.63687583  0.16297191  0.84580185     0.14000
H638        H  0.71592930  0.08304047  0.77831421    -0.00300
H639        H  0.71917889  0.09272591  0.90189990     0.14300
H640        H  0.78380330  0.17155015  0.84019482     0.14100
C641        C  0.75129782  0.36295289  0.86254444     0.85900
C642        C  0.79818100  0.35912636  0.83735000    -0.54400
C643        C  0.79943133  0.38009154  0.80521848     0.08800
C644        C  0.75244480  0.40254943  0.80126427     0.19800
C645        C  0.74741471  0.40342150  0.87066401    -0.55100
C646        C  0.74761326  0.42437024  0.83865308     0.08900
C647        C  0.70928441  0.35434462  0.83580557    -0.54600
C648        C  0.70932641  0.37508229  0.80377246     0.09500
H649        H  0.82705009  0.34054599  0.84336989     0.14000
H650        H  0.75256406  0.41981279  0.77556139    -0.00300
H651        H  0.74282108  0.41430055  0.89927417     0.14300
H652        H  0.68143828  0.33372372  0.84207661     0.14100
C653        C  0.47021347  0.10979388  0.63859554     0.85900
C654        C  0.92196885  0.10648497  0.66306215    -0.54400
C655        C  0.92213792  0.12836616  0.69428759     0.08800
C656        C  0.47118750  0.15110410  0.69874211     0.19800
C657        C  0.47615116  0.15020154  0.62919994    -0.55100
C658        C  0.47687077  0.17207269  0.66080535     0.08900
C659        C  0.51194278  0.10172756  0.66568177    -0.54600
C660        C  0.51299351  0.12358321  0.69706137     0.09500
H661        H  0.89098546  0.08897453  0.65656044     0.14000
H662        H  0.47131352  0.16850622  0.72444392    -0.00300
H663        H  0.48027815  0.16036029  0.60026436     0.14300
H664        H  0.53835718  0.08058188  0.66042514     0.14100
C665        C  0.01244582  0.38898470  0.63699440     0.85900
C666        C  0.55619053  0.39267502  0.66344240    -0.54400
C667        C  0.55295096  0.37144197  0.69510592     0.08800
C668        C  0.00473717  0.34729606  0.69654719     0.19800
C669        C  0.00587486  0.34886046  0.62700643    -0.55100
C670        C  0.00217913  0.32676754  0.65829492     0.08900
C671        C  0.96866019  0.39770348  0.66381456    -0.54600
C672        C  0.96388132  0.37563625  0.69491353     0.09500
H673        H  0.58751134  0.41037147  0.65708767     0.14000
H674        H  0.00083313  0.32930737  0.72161951    -0.00300
H675        H  0.00556462  0.33890143  0.59790795     0.14300
H676        H  0.94370469  0.41949140  0.65853069     0.14100
C677        C  0.51118149  0.22960819  0.68757814    -0.13900
C678        C  0.48427697  0.21204179  0.65930121     0.08200
C679        C  0.96348768  0.23179973  0.62834814    -0.13900
C680        C  0.96984912  0.26943241  0.62815836    -0.13900
C681        C  0.99762544  0.28672002  0.65621806     0.08200
C682        C  0.51728401  0.26709196  0.68747434    -0.13900
H683        H  0.52824307  0.21433038  0.70965921     0.12200
H684        H  0.94084360  0.21923161  0.60708942     0.12200
H685        H  0.95185917  0.28504016  0.60680997     0.12200
H686        H  0.53894905  0.27942591  0.70945623     0.12200
C687        C  0.62059728  0.36591994  0.78802557    -0.13900
C688        C  0.66957923  0.37264620  0.77578548     0.08200
C689        C  0.68015050  0.37734507  0.73677220    -0.13900
C690        C  0.64255015  0.37590257  0.71058851    -0.13900
C691        C  0.59327457  0.37013482  0.72284858     0.08200
C692        C  0.58293639  0.36457045  0.76184117    -0.13900
H693        H  0.61111107  0.36259615  0.81803277     0.12200
H694        H  0.71751603  0.38174922  0.72636524     0.12200
H695        H  0.65226951  0.37923073  0.68064002     0.12200
H696        H  0.54575098  0.36018905  0.77242357     0.12200
C697        C  0.83579616  0.38958662  0.73867900    -0.13900
C698        C  0.84196851  0.38033730  0.77705237     0.08200
C699        C  0.88925544  0.37074377  0.78823679    -0.13900
C700        C  0.92858593  0.36936736  0.76171668    -0.13900
C701        C  0.92215032  0.37802562  0.72334089     0.08200
C702        C  0.87529765  0.38845757  0.71220412    -0.13900
H703        H  0.80032799  0.39692991  0.72857403     0.12200
H704        H  0.89636444  0.36458506  0.81764919     0.12200
H705        H  0.96420374  0.36201583  0.77156701     0.12200
H706        H  0.86871414  0.39487735  0.68273827     0.12200
C707        C  0.57839872  0.12813072  0.79112549    -0.13900
C708        C  0.62751683  0.12181337  0.77958398     0.08200
C709        C  0.63820376  0.11500089  0.74081568    -0.13900
C710        C  0.60095685  0.11495813  0.71423431    -0.13900
C711        C  0.55209283  0.12192951  0.72569825     0.08200
C712        C  0.54118233  0.12834486  0.76445431    -0.13900
H713        H  0.56857181  0.13275483  0.82082831     0.12200
H714        H  0.67558931  0.11077073  0.73065269     0.12200
H715        H  0.61071313  0.11051867  0.68446933     0.12200
H716        H  0.50377408  0.13321550  0.77425000     0.12200
C717        C  0.81485409  0.09698494  0.75814279    -0.13900
C718        C  0.79920928  0.12927541  0.77508727     0.08200
C719        C  0.82466402  0.16148015  0.76539394    -0.13900
C720        C  0.86496907  0.16126657  0.73949235    -0.13900
C721        C  0.88029200  0.12892357  0.72254480     0.08200
C722        C  0.85477681  0.09682630  0.73217319    -0.13900
H723        H  0.79718920  0.07155009  0.76565271     0.12200
H724        H  0.81323974  0.18689663  0.77759705     0.12200
H725        H  0.88355773  0.18644300  0.73220691     0.12200
H726        H  0.86627286  0.07134710  0.72012604     0.12200
C727        C  0.69881690  0.01841800  0.81708872    -0.13900
C728        C  0.72304737  0.04055276  0.84334457     0.08200
C729        C  0.75361803  0.02439581  0.86973388    -0.13900
C730        C  0.75984715  0.48549279  0.86874562    -0.13900
C731        C  0.73991108  0.46397347  0.83985356     0.08200
C732        C  0.71174615  0.48043324  0.81217065    -0.13900
H733        H  0.67411032  0.02986824  0.79698849     0.12200
H734        H  0.77320188  0.04073111  0.89004869     0.12200
H735        H  0.78187172  0.47360699  0.89041999     0.12200
H736        H  0.69461747  0.46449895  0.79022839     0.12200
C737        C  0.01925517  0.41412327  0.60321889    -0.17000
C738        C  0.98253756  0.42326979  0.58070027    -0.32200
H739        H  0.55357621  0.42881274  0.59943010     0.12000
H740        H  0.94597842  0.41178273  0.58589792     0.12600
C741        C  0.50738254  0.07513807  0.58313002    -0.17000
C742        C  0.46771171  0.08473619  0.60438721    -0.32200
H743        H  0.54326145  0.08641219  0.58952995     0.12000
H744        H  0.93166087  0.06993716  0.59883824     0.12600
C745        C  0.53180016  0.41568512  0.39291732    -0.17000
C746        C  0.49276356  0.42273726  0.41598489    -0.32200
H747        H  0.06747215  0.42773178  0.40172139     0.12000
H748        H  0.45755583  0.40974278  0.41079225     0.12600
C749        C  0.98063782  0.08400166  0.39628362    -0.17000
C750        C  0.01747687  0.07574849  0.41911199    -0.32200
H751        H  0.44650586  0.07139723  0.40114738     0.12000
H752        H  0.05387208  0.08745855  0.41375138     0.12600
C753        C  0.98347386  0.23135186  0.37208436    -0.13900
C754        C  0.00537209  0.21066838  0.34272231     0.08200
C755        C  0.53954521  0.22846477  0.31410632    -0.13900
C756        C  0.54502225  0.26597218  0.31353263    -0.13900
C757        C  0.52142372  0.28735236  0.34140999     0.08200
C758        C  0.98901284  0.26901526  0.37228167    -0.13900
H759        H  0.96085137  0.21854271  0.39426327     0.12200
H760        H  0.55817036  0.21293951  0.29205457     0.12200
H761        H  0.56787934  0.27816010  0.29111760     0.12200
H762        H  0.97049525  0.28428302  0.39458385     0.12200
C763        C  0.65165084  0.36423168  0.21020207    -0.13900
C764        C  0.69980158  0.36949308  0.22277919     0.08200
C765        C  0.70726457  0.37354461  0.26189724    -0.13900
C766        C  0.66732599  0.37299471  0.28791923    -0.13900
C767        C  0.61899655  0.36869948  0.27532059     0.08200
C768        C  0.61162571  0.36384731  0.23623778    -0.13900
H769        H  0.64479240  0.36155129  0.18009945     0.12200
H770        H  0.74401940  0.37703002  0.27240050     0.12200
H771        H  0.67431937  0.37597688  0.31796226     0.12200
H772        H  0.57486334  0.36093731  0.22562403     0.12200
C773        C  0.89166354  0.34534323  0.23338672    -0.13900
C774        C  0.87038405  0.37797668  0.22316747     0.08200
C775        C  0.88695436  0.40996362  0.24023916    -0.13900
C776        C  0.92450360  0.40941897  0.26661927    -0.13900
C777        C  0.94606132  0.37674041  0.27661382     0.08200
C778        C  0.92886981  0.34471256  0.25989733    -0.13900
H779        H  0.87904976  0.32016976  0.22117153     0.12200
H780        H  0.87189876  0.43551295  0.23250776     0.12200
H781        H  0.93719196  0.43463015  0.27867470     0.12200
H782        H  0.94354254  0.31894695  0.26773238     0.12200
C783        C  0.66490151  0.10957918  0.25910434    -0.13900
C784        C  0.65845675  0.11909344  0.22079553     0.08200
C785        C  0.61091713  0.12820956  0.20987322    -0.13900
C786        C  0.57163171  0.12879748  0.23658972    -0.13900
C787        C  0.57837809  0.11982248  0.27491079     0.08200
C788        C  0.62551396  0.10992138  0.28573578    -0.13900
H789        H  0.70049553  0.10259742  0.26912882     0.12200
H790        H  0.60365777  0.13469243  0.18056009     0.12200
H791        H  0.53591207  0.13598540  0.22696025     0.12200
H792        H  0.63241481  0.10339567  0.31511977     0.12200
C793        C  0.81878312  0.12214724  0.26261714    -0.13900
C794        C  0.82996459  0.12796284  0.22384057     0.08200
C795        C  0.87896217  0.13566297  0.21239902    -0.13900
C796        C  0.91599380  0.13687970  0.23906115    -0.13900
C797        C  0.90510510  0.13023456  0.27778949     0.08200
C798        C  0.85579044  0.12345099  0.28931365    -0.13900
H799        H  0.78141476  0.11697456  0.27249391     0.12200
H800        H  0.88901265  0.13982565  0.18261143     0.12200
H801        H  0.95321972  0.14200728  0.22894113     0.12200
H802        H  0.84555918  0.11923242  0.31904029     0.12200
C803        C  0.78643834  0.02002698  0.18674491    -0.13900
C804        C  0.76140424  0.03687438  0.15757112     0.08200
C805        C  0.74373166  0.01555110  0.12759390    -0.13900
C806        C  0.74885287  0.47882424  0.13195296    -0.13900
C807        C  0.77494524  0.46215818  0.16087460     0.08200
C808        C  0.79319443  0.48375632  0.19033772    -0.13900
H809        H  0.80201985  0.03560824  0.20962799     0.12200
H810        H  0.72398194  0.02766727  0.10473080     0.12200
H811        H  0.73318854  0.46302230  0.10927255     0.12200
H812        H  0.81358863  0.47224453  0.21300038     0.12200
C813        C  0.72228222  0.18311893  0.08642719    -0.17000
C814        C  0.75647196  0.16147267  0.10045647    -0.35400
H815        H  0.68527056  0.18335490  0.09853132     0.12000
H816        H  0.79236471  0.16068544  0.08603665     0.12600
C817        C  0.75575139  0.33201341  0.07792899    -0.17000
C818        C  0.79345979  0.33712788  0.10135766    -0.32200
H819        H  0.72225330  0.34702388  0.08293522     0.12000
H820        H  0.82641815  0.32137479  0.09693597     0.12600
C821        C  0.74888855  0.17279126  0.92077235    -0.17000
C822        C  0.71098525  0.16812233  0.89736114    -0.32200
H823        H  0.78195211  0.15726511  0.91585259     0.12000
H824        H  0.67849695  0.18438485  0.90178166     0.12600
C825        C  0.78152636  0.32041049  0.91325242    -0.17000
C826        C  0.74611555  0.34049132  0.89848811    -0.32200
H827        H  0.81872006  0.32113182  0.90146774     0.12000
H828        H  0.71012109  0.34066516  0.91279653     0.12600
O829        O  0.80409736  0.77920367  0.96205445    -0.75000
O830        O  0.77676846  0.71236160  0.04353542    -0.75100
O831        O  0.78928944  0.70695535  0.96665651    -0.75100
O832        O  0.79145374  0.78456633  0.03927005    -0.75200
O833        O  0.71105721  0.79203287  0.03281796    -0.75100
O834        O  0.70904270  0.71483383  0.95986346    -0.75100
O835        O  0.69635179  0.71985581  0.03716771    -0.75000
O836        O  0.72369561  0.78710921  0.95608998    -0.75100
Ni837      Ni  0.79326801  0.74552276  0.00311433     1.25400
Ni838      Ni  0.70718779  0.75365631  0.99623550     1.25400
C839        C  0.76836249  0.79415427  0.94564993     0.87200
C840        C  0.73209429  0.70535830  0.05399062     0.87100
C841        C  0.74891642  0.69852507  0.95082432     0.87100
C842        C  0.75149095  0.80076590  0.04835787     0.87300
C843        C  0.75072143  0.63851205  0.13776440     0.85900
C844        C  0.79272995  0.64723845  0.16449336    -0.54400
C845        C  0.79255611  0.62681870  0.19677747     0.08800
C846        C  0.74917738  0.59954540  0.19953417     0.19800
C847        C  0.75436805  0.59792070  0.13016145    -0.55100
C848        C  0.75378215  0.57729880  0.16245533     0.08900
C849        C  0.70370877  0.64262698  0.16284836    -0.54600
C850        C  0.70233811  0.62194410  0.19519287     0.09500
H851        H  0.82062929  0.66775174  0.15800818     0.14000
H852        H  0.74861754  0.58262062  0.22548017    -0.00300
H853        H  0.75882890  0.58672775  0.10168331     0.14300
H854        H  0.67452941  0.66081699  0.15641167     0.14100
C855        C  0.78559797  0.85905158  0.13590533     0.85900
C856        C  0.74157709  0.85059144  0.16298195    -0.54400
C857        C  0.73907799  0.87211179  0.19457592     0.08800
C858        C  0.78188989  0.89979819  0.19640516     0.19800
C859        C  0.78171311  0.89942724  0.12690488    -0.55100
C860        C  0.77966126  0.92111854  0.15863892     0.08900
C861        C  0.83066213  0.85626574  0.16084445    -0.54600
C862        C  0.82901675  0.87739489  0.19270835     0.09500
H863        H  0.71464149  0.82949095  0.15742382     0.14000
H864        H  0.77981612  0.91671067  0.22240464    -0.00300
H865        H  0.78094606  0.90968315  0.09798880     0.14300
H866        H  0.86136798  0.83892144  0.15382193     0.14100
C867        C  0.98968733  0.61143289  0.36293542     0.85900
C868        C  0.53009928  0.60061831  0.33391907    -0.54400
C869        C  0.53516011  0.62281123  0.30292589     0.08800
C870        C  0.99678211  0.65341049  0.30352751     0.19800
C871        C  0.99539550  0.65158850  0.37310549    -0.55100
C872        C  0.99945773  0.67373971  0.34187830     0.08900
C873        C  0.94516287  0.60945247  0.33747935    -0.54600
C874        C  0.94820577  0.63132628  0.30632763     0.09500
H875        H  0.55525268  0.57896795  0.33930975     0.14000
H876        H  0.99907892  0.67165658  0.27859101    -0.00300
H877        H  0.99696969  0.66138813  0.40221465     0.14300
H878        H  0.91415822  0.59132661  0.34332699     0.14100
C879        C  0.52887619  0.89050820  0.36158339     0.85900
C880        C  0.98630735  0.89969115  0.33307848    -0.54400
C881        C  0.98489001  0.87692314  0.30240628     0.08800
C882        C  0.52785042  0.84841761  0.30221155     0.19800
C883        C  0.52299156  0.85024687  0.37164696    -0.55100
C884        C  0.52284204  0.82786613  0.34044786     0.08900
C885        C  0.57570868  0.89297756  0.33627598    -0.54600
C886        C  0.57562804  0.87104997  0.30506656     0.09500
H887        H  0.95930718  0.92038319  0.33855283     0.14000
H888        H  0.52773998  0.83068730  0.27688338    -0.00300
H889        H  0.52048981  0.84048996  0.40079628     0.14300
H890        H  0.60600821  0.91128050  0.34228497     0.14100
O891        O  0.54789415  0.53274771  0.46045080    -0.75000
O892        O  0.53294412  0.95949512  0.53958490    -0.75100
O893        O  0.53753270  0.96049581  0.46194406    -0.75100
O894        O  0.54353957  0.53226630  0.53748052    -0.75200
O895        O  0.96336452  0.53904544  0.53803275    -0.75100
O896        O  0.95490177  0.96639727  0.45986555    -0.75100
O897        O  0.94928959  0.96507065  0.53671191    -0.75000
O898        O  0.96892484  0.53892358  0.46050087    -0.75100
Ni899      Ni  0.54378110  0.99622141  0.50143801     1.25400
Ni900      Ni  0.95537105  0.00237793  0.49908987     1.25400
C901        C  0.01242167  0.54831016  0.44877847     0.87200
C902        C  0.98715728  0.95023567  0.55004205     0.87100
C903        C  0.99454706  0.95183241  0.44745167     0.87100
C904        C  0.00505309  0.54834406  0.55135106     0.87300
C905        C  0.71439111  0.64129462  0.86252664     0.85900
C906        C  0.66905499  0.64393791  0.83775695    -0.54400
C907        C  0.67042221  0.62260517  0.80593555     0.08800
C908        C  0.71782127  0.60045863  0.80220114     0.19800
C909        C  0.71838879  0.60093885  0.87158913    -0.55100
C910        C  0.72013510  0.57929299  0.83988287     0.08900
C911        C  0.75823075  0.64980126  0.83523578    -0.54600
C912        C  0.76071689  0.62813212  0.80373934     0.09500
H913        H  0.63895202  0.66183879  0.84463947     0.14000
H914        H  0.71942841  0.58313360  0.77655171    -0.00300
H915        H  0.71945126  0.59061057  0.90046915     0.14300
H916        H  0.78597351  0.67014316  0.84138549     0.14100
C917        C  0.74959665  0.86401011  0.86454307     0.85900
C918        C  0.79623773  0.86043394  0.83892982    -0.54400
C919        C  0.79717831  0.88155538  0.80684402     0.08800
C920        C  0.74989358  0.90384689  0.80335656     0.19800
C921        C  0.74571379  0.90450775  0.87282602    -0.55100
C922        C  0.74534225  0.92553440  0.84086583     0.08900
C923        C  0.70732930  0.85543995  0.83806534    -0.54600
C924        C  0.70706088  0.87610599  0.80600921     0.09500
H925        H  0.82524736  0.84195124  0.84476297     0.14000
H926        H  0.74940901  0.92127782  0.77779537    -0.00300
H927        H  0.74156155  0.91538445  0.90146871     0.14300
H928        H  0.67994321  0.83448485  0.84426872     0.14100
C929        C  0.47096331  0.60656377  0.63773747     0.85900
C930        C  0.92459884  0.60762674  0.66267016    -0.54400
C931        C  0.92525259  0.62904180  0.69427670     0.08800
C932        C  0.47250855  0.64832148  0.69744490     0.19800
C933        C  0.47741051  0.64675655  0.62790856    -0.55100
C934        C  0.47852794  0.66882310  0.65925385     0.08900
C935        C  0.51278347  0.59848275  0.66481025    -0.54600
C936        C  0.51415452  0.62061967  0.69602917     0.09500
H937        H  0.89358814  0.59014163  0.65618878     0.14000
H938        H  0.47288203  0.66608443  0.72285472    -0.00300
H939        H  0.48180528  0.65663229  0.59887382     0.14300
H940        H  0.53917507  0.57734083  0.65945275     0.14100
C941        C  0.01024522  0.89039084  0.63752140     0.85900
C942        C  0.55839592  0.88844163  0.66259094    -0.54400
C943        C  0.55490569  0.86699037  0.69413640     0.08800
C944        C  0.00318221  0.84953465  0.69768453     0.19800
C945        C  0.00377660  0.85019329  0.62813768    -0.55100
C946        C  0.00036466  0.82848533  0.65971130     0.08900
C947        C  0.96654661  0.89936357  0.66439555    -0.54600
C948        C  0.96199269  0.87770633  0.69588348     0.09500
H949        H  0.58971296  0.90619589  0.65647114     0.14000
H950        H  0.99996592  0.83191394  0.72307863    -0.00300
H951        H  0.00340972  0.83992230  0.59916462     0.14300
H952        H  0.94147429  0.92098625  0.65874595     0.14100
C953        C  0.51464864  0.72596609  0.68505408    -0.13900
C954        C  0.48691060  0.70855115  0.65721374     0.08200
C955        C  0.96460803  0.73322018  0.62879562    -0.13900
C956        C  0.96992886  0.77089302  0.62903693    -0.13900
C957        C  0.99606457  0.78841649  0.65789809     0.08200
C958        C  0.52067607  0.76341184  0.68497258    -0.13900
H959        H  0.53205319  0.71061454  0.70691728     0.12200
H960        H  0.94324788  0.72051951  0.60683642     0.12200
H961        H  0.95250992  0.78630861  0.60724253     0.12200
H962        H  0.54268635  0.77574506  0.70674984     0.12200
C963        C  0.61945103  0.86386907  0.78855392    -0.13900
C964        C  0.66834777  0.87225029  0.77730523     0.08200
C965        C  0.68011911  0.87653936  0.73842001    -0.13900
C966        C  0.64371480  0.87334512  0.71139039    -0.13900
C967        C  0.59439033  0.86627188  0.72263800     0.08200
C968        C  0.58296483  0.86077926  0.76150581    -0.13900
H969        H  0.60905289  0.86059743  0.81840749     0.12200
H970        H  0.71754796  0.88195642  0.72876288     0.12200
H971        H  0.65437445  0.87655860  0.68160047     0.12200
H972        H  0.54575018  0.85529894  0.77135389     0.12200
C973        C  0.83402202  0.89281757  0.74040245    -0.13900
C974        C  0.83974775  0.88209686  0.77844244     0.08200
C975        C  0.88678878  0.87135346  0.78911494    -0.13900
C976        C  0.92609084  0.87017512  0.76253345    -0.13900
C977        C  0.92012767  0.88015391  0.72444952     0.08200
C978        C  0.87354999  0.89180823  0.71380851    -0.13900
H979        H  0.79890078  0.90128567  0.73059775     0.12200
H980        H  0.89388475  0.86413147  0.81823559     0.12200
H981        H  0.96133505  0.86181796  0.77222175     0.12200
H982        H  0.86709357  0.89929903  0.68462005     0.12200
C983        C  0.58108668  0.62825710  0.78936612    -0.13900
C984        C  0.63005514  0.62118661  0.77789597     0.08200
C985        C  0.64015710  0.61300677  0.73931566    -0.13900
C986        C  0.60251224  0.61210468  0.71297923    -0.13900
C987        C  0.55378458  0.61964922  0.72443127     0.08200
C988        C  0.54354502  0.62765738  0.76295134    -0.13900
H989        H  0.57145982  0.63391727  0.81888750     0.12200
H990        H  0.67734569  0.60820731  0.72905578     0.12200
H991        H  0.61188145  0.60652105  0.68337202     0.12200
H992        H  0.50633450  0.63306540  0.77284743     0.12200
C993        C  0.81800349  0.59701909  0.75768454    -0.13900
C994        C  0.80304971  0.62895880  0.77572752     0.08200
C995        C  0.82973152  0.66102700  0.76762053    -0.13900
C996        C  0.86997064  0.66110042  0.74165708    -0.13900
C997        C  0.88403722  0.62919195  0.72310603     0.08200
C998        C  0.85783873  0.59715496  0.73168523    -0.13900
H999        H  0.79971033  0.57158480  0.76417057     0.12200
H1000       H  0.81911714  0.68618327  0.78085279     0.12200
H1001       H  0.88923799  0.68624481  0.73541153     0.12200
H1002       H  0.86856602  0.57192035  0.71865392     0.12200
C1003       C  0.70444880  0.51761605  0.81283730    -0.13900
C1004       C  0.72537204  0.53936972  0.84108309     0.08200
C1005       C  0.75276580  0.52280135  0.86930089    -0.13900
C1006       C  0.76064062  0.98704534  0.86923393    -0.13900
C1007       C  0.73743479  0.96512899  0.84221716     0.08200
C1008       C  0.70604874  0.98118647  0.81645754    -0.13900
H1009       H  0.68195766  0.52921720  0.79131216     0.12200
H1010       H  0.76986043  0.53874384  0.89123744     0.12200
H1011       H  0.78513861  0.97539192  0.88936854     0.12200
H1012       H  0.68667380  0.96487571  0.79598095     0.12200
C1013       C  0.01670669  0.91491084  0.60333062    -0.17000
C1014       C  0.98025545  0.92254752  0.57997679    -0.32200
H1015       H  0.55593057  0.92481298  0.59844861     0.12000
H1016       H  0.94402144  0.91043492  0.58490918     0.12600
C1017       C  0.50693053  0.57422617  0.58049389    -0.17000
C1018       C  0.46812334  0.58152654  0.60364546    -0.32200
H1019       H  0.54239134  0.58678879  0.58579023     0.12000
H1020       H  0.93335998  0.57210993  0.59763851     0.12600
C1021       C  0.53155784  0.91587976  0.39546731    -0.17000
C1022       C  0.49257510  0.92376764  0.41822689    -0.32200
H1023       H  0.06516587  0.93179663  0.39851854     0.12000
H1024       H  0.45700754  0.91144076  0.41280788     0.12600
C1025       C  0.98296788  0.58606317  0.39667674    -0.17000
C1026       C  0.01967290  0.57634329  0.41899140    -0.32200
H1027       H  0.44400056  0.57033984  0.39864613     0.12000
H1028       H  0.05638225  0.58748895  0.41368441     0.12600
C1029       C  0.98418183  0.73452634  0.37235382    -0.13900
C1030       C  0.00743106  0.71348136  0.34394453     0.08200
C1031       C  0.53575937  0.72900944  0.31383895    -0.13900
C1032       C  0.54202807  0.76647253  0.31414324    -0.13900
C1033       C  0.51909239  0.78762508  0.34257635     0.08200
C1034       C  0.98942628  0.77221698  0.37184577    -0.13900
H1035       H  0.96066003  0.72197352  0.39414979     0.12200
H1036       H  0.55416439  0.71378600  0.29144429     0.12200
H1037       H  0.56515782  0.77878896  0.29197972     0.12200
H1038       H  0.96980351  0.78785439  0.39327585     0.12200
C1039       C  0.64938107  0.86264272  0.21173647    -0.13900
C1040       C  0.69755530  0.87018599  0.22315104     0.08200
C1041       C  0.70554338  0.87690315  0.26182861    -0.13900
C1042       C  0.66621099  0.87647380  0.28845319    -0.13900
C1043       C  0.61780752  0.86969080  0.27696408     0.08200
C1044       C  0.60996216  0.86249065  0.23831549    -0.13900
H1045       H  0.64187641  0.85792714  0.18201751     0.12200
H1046       H  0.74228696  0.88212710  0.27164349     0.12200
H1047       H  0.67389757  0.88127892  0.31811077     0.12200
H1048       H  0.57323127  0.85781309  0.22827607     0.12200
C1049       C  0.89197396  0.84531536  0.23035838    -0.13900
C1050       C  0.86861883  0.87747464  0.22110653     0.08200
C1051       C  0.88387031  0.90951679  0.23876553    -0.13900
C1052       C  0.92177789  0.90953700  0.26483023    -0.13900
C1053       C  0.94516548  0.87735783  0.27407639     0.08200
C1054       C  0.92960168  0.84523427  0.25659889    -0.13900
H1055       H  0.88056149  0.82001393  0.21775911     0.12200
H1056       H  0.86741459  0.93475308  0.23187157     0.12200
H1057       H  0.93318098  0.93488509  0.27730353     0.12200
H1058       H  0.94569110  0.81976395  0.26372881     0.12200
C1059       C  0.66500474  0.61257179  0.26142957    -0.13900
C1060       C  0.65924811  0.62101494  0.22278637     0.08200
C1061       C  0.61174761  0.62873393  0.21066038    -0.13900
C1062       C  0.57165929  0.62905336  0.23654022    -0.13900
C1063       C  0.57760374  0.62113507  0.27514890     0.08200
C1064       C  0.62474105  0.61259945  0.28725613    -0.13900
H1065       H  0.70068229  0.60673254  0.27219693     0.12200
H1066       H  0.60515361  0.63424669  0.18101079     0.12200
H1067       H  0.53592817  0.63511410  0.22606851     0.12200
H1068       H  0.63083958  0.60688307  0.31696477     0.12200
C1069       C  0.82164226  0.62378762  0.26379993    -0.13900
C1070       C  0.83222655  0.62946560  0.22493044     0.08200
C1071       C  0.88110867  0.63735568  0.21308262    -0.13900
C1072       C  0.91854491  0.63893608  0.23949731    -0.13900
C1073       C  0.90810056  0.63254401  0.27834430     0.08200
C1074       C  0.85894969  0.62555958  0.29019472    -0.13900
H1075       H  0.78442057  0.61839866  0.27401629     0.12200
H1076       H  0.89076721  0.64136640  0.18320713     0.12200
H1077       H  0.95571902  0.64406217  0.22917063     0.12200
H1078       H  0.84906491  0.62150300  0.32000592     0.12200
C1079       C  0.78623662  0.52091979  0.19075059    -0.13900
C1080       C  0.76032423  0.53757318  0.16188660     0.08200
C1081       C  0.74160689  0.51610142  0.13246515    -0.13900
C1082       C  0.75013027  0.97809936  0.12743071    -0.13900
C1083       C  0.77436939  0.96116112  0.15725047     0.08200
C1084       C  0.79255736  0.98282057  0.18666544    -0.13900
H1085       H  0.80217585  0.53665070  0.21337751     0.12200
H1086       H  0.72080836  0.52803257  0.11008143     0.12200
H1087       H  0.73492272  0.96241482  0.10447972     0.12200
H1088       H  0.81201099  0.97134756  0.20979416     0.12200
C1089       C  0.72126224  0.68115596  0.08669546    -0.17000
C1090       C  0.75623120  0.66066737  0.10150705    -0.35400
H1091       H  0.68415009  0.68091976  0.09863351     0.12000
H1092       H  0.79212563  0.66002410  0.08708134     0.12600
C1093       C  0.75101426  0.82922516  0.07800282    -0.17000
C1094       C  0.78865590  0.83435749  0.10145346    -0.32200
H1095       H  0.71749569  0.84426762  0.08279935     0.12000
H1096       H  0.82150273  0.81844293  0.09718633     0.12600
C1097       C  0.74926800  0.67038910  0.92080643    -0.17000
C1098       C  0.71170894  0.66586478  0.89710116    -0.32200
H1099       H  0.78255068  0.65507867  0.91601391     0.12000
H1100       H  0.67907662  0.68199222  0.90142635     0.12600
C1101       C  0.77915881  0.81912721  0.91357530    -0.17000
C1102       C  0.74467257  0.84106430  0.90034332    -0.32200
H1103       H  0.81585567  0.81878250  0.90088780     0.12000
H1104       H  0.70929478  0.84200361  0.91552411     0.12600
loop_ 
_geom_bond_atom_site_label_1 
_geom_bond_atom_site_label_2 
_geom_bond_distance 
_geom_bond_site_symmetry_2 
_ccdc_geom_bond_type 
O1           Ni9   1.921   1_556  S
O1           C11   1.281       .  A
O2           Ni9   1.917       .  S
O2           C12   1.282       .  A
O3           Ni9   1.925   1_556  S
O3           C13   1.282       .  A
O4           Ni9   1.926       .  S
O4           C14   1.284       .  A
O5          Ni10   1.917   1_554  S
O5           C14   1.279       .  A
O6          Ni10   1.921       .  S
O6           C13   1.282       .  A
O7          Ni10   1.924   1_554  S
O7           C12   1.282       .  A
O8          Ni10   1.920       .  S
O8           C11   1.283       .  A
Ni9         Ni10   2.388   1_554  S
C11         C273   1.480       .  S
C12         C261   1.480       .  S
C13         C269   1.483       .  S
C14         C265   1.480       .  S
C15          C16   1.532       .  S
C15          C21   1.541       .  S
C15          C19   1.534       .  S
C15         C262   1.519       .  S
C16          H23   1.086       .  S
C16          C17   1.364       .  D
C17         C242   1.488       .  S
C17          C18   1.543       .  S
C18          C22   1.547       .  S
C18          C20   1.543       .  S
C18          H24   1.107       .  S
C19          H25   1.086       .  S
C19          C20   1.368       .  D
C20         C252   1.489       .  S
C21          H26   1.081       .  S
C21          C22   1.372       .  D
C22         C232   1.499       .  S
C27          C28   1.533       .  S
C27          C33   1.532       .  S
C27          C31   1.538       .  S
C27         C266   1.515       .  S
C28          H35   1.086       .  S
C28          C29   1.366       .  D
C29         C212   1.486       .  S
C29          C30   1.546       .  S
C30          C34   1.547       .  S
C30          C32   1.549       .  S
C30          H36   1.109       .  S
C31          H37   1.086       .  S
C31          C32   1.372       .  D
C32         C255   1.496       .  S
C33          H38   1.086       .  S
C33          C34   1.365       .  D
C34         C222   1.495       .  S
C39          C45   1.529       .  S
C39          C43   1.539       .  S
C39         C197   1.520       .  S
C39         C592   1.540       .  S
C40         C591   1.537   1_455  S
C40          H47   1.085       .  S
C40          C41   1.368       .  D
C41         C235   1.492       .  S
C41         C594   1.544   1_455  S
C42          C46   1.546       .  S
C42          C44   1.546       .  S
C42         C593   1.544       .  S
C42          H48   1.107       .  S
C43          H49   1.086       .  S
C43          C44   1.373       .  D
C44         C202   1.493       .  S
C45          H50   1.085       .  S
C45          C46   1.363       .  D
C46         C245   1.493       .  S
C51          C57   1.532       .  S
C51          C55   1.541       .  S
C51         C193   1.515       .  S
C51         C604   1.537   1_455  S
C52         C603   1.535       .  S
C52          H59   1.085       .  S
C52          C53   1.370       .  D
C53         C225   1.498       .  S
C53         C606   1.548       .  S
C54          C58   1.541       .  S
C54          C56   1.543       .  S
C54         C605   1.542   1_455  S
C54          H60   1.107       .  S
C55          H61   1.085       .  S
C55          C56   1.373       .  D
C56         C205   1.493       .  S
C57          H62   1.086       .  S
C57          C58   1.364       .  D
C58         C215   1.489       .  S
O63        Ni347   1.918   1_545  S
O63         C625   1.280       .  A
O64         Ni71   1.922       .  S
O64         C626   1.283   1_455  A
O65         Ni71   1.924       .  S
O65         C627   1.283   1_455  A
O66        Ni347   1.920   1_545  S
O66         C628   1.280       .  A
O67        Ni348   1.925       .  S
O67          C76   1.283       .  A
O68         Ni72   1.922       .  S
O68          C75   1.281       .  A
O69         Ni72   1.919       .  S
O69          C74   1.280       .  A
O70        Ni348   1.930       .  S
O70          C73   1.285       .  A
Ni71        O339   1.920       .  S
Ni71        O342   1.921       .  S
Ni71       Ni624   2.388   1_455  S
Ni72        O343   1.926       .  S
Ni72        O346   1.925       .  S
Ni72       Ni623   2.388       .  S
C73         O615   1.280       .  A
C73         C198   1.484       .  S
C74         O616   1.284       .  A
C74         C186   1.482       .  S
C75         O617   1.283       .  A
C75         C746   1.481       .  S
C76         O618   1.281       .  A
C76         C741   1.483       .  S
C77          C78   1.536       .  S
C77          C83   1.535       .  S
C77          C81   1.540       .  S
C77         C270   1.518       .  S
C78          H85   1.085       .  S
C78          C79   1.367       .  D
C79         C156   1.495       .  S
C79          C80   1.544       .  S
C80          C84   1.543       .  S
C80          C82   1.542       .  S
C80          H86   1.106       .  S
C81          H87   1.085       .  S
C81          C82   1.373       .  D
C82         C176   1.495       .  S
C83          H88   1.086       .  S
C83          C84   1.366       .  D
C84         C166   1.489       .  S
C89          C90   1.541       .  S
C89          C95   1.531       .  S
C89          C93   1.535       .  S
C89         C274   1.520       .  S
C90          H97   1.081       .  S
C90          C91   1.372       .  D
C91         C146   1.500       .  S
C91          C92   1.549       .  S
C92          C96   1.545       .  S
C92          C94   1.544       .  S
C92          H98   1.107       .  S
C93          H99   1.086       .  S
C93          C94   1.367       .  D
C94         C179   1.490       .  S
C95         H100   1.086       .  S
C95          C96   1.364       .  D
C96         C136   1.490       .  S
C101        C107   1.538   1_655  S
C101        C105   1.540       .  S
C101        C190   1.516       .  S
C101        C654   1.531       .  S
C102        C653   1.532       .  S
C102        H109   1.086       .  S
C102        C103   1.363       .  D
C103        C169   1.486       .  S
C103        C656   1.541       .  S
C104        C108   1.543   1_655  S
C104        C106   1.545       .  S
C104        C655   1.543       .  S
C104        H110   1.109       .  S
C105        H111   1.086       .  S
C105        C106   1.372       .  D
C106        C126   1.490       .  S
C107        H112   1.086       .  S
C107        C108   1.368       .  D
C108        C159   1.490       .  S
C113        C119   1.536       .  S
C113        C117   1.540       .  S
C113        C185   1.518       .  S
C113        C666   1.531       .  S
C114        C665   1.530       .  S
C114        H121   1.085       .  S
C114        C115   1.365       .  D
C115        C139   1.494       .  S
C115        C668   1.545       .  S
C116        C120   1.547       .  S
C116        C118   1.547       .  S
C116        C667   1.544       .  S
C116        H122   1.107       .  S
C117        H123   1.085       .  S
C117        C118   1.374       .  D
C118        C129   1.497       .  S
C119        H124   1.086       .  S
C119        C120   1.369       .  D
C120        C149   1.494       .  S
C125        C126   1.404   1_455  A
C125        C130   1.397       .  A
C125        H131   1.083       .  S
C126        C679   1.407       .  A
C127        C128   1.406       .  A
C127        C678   1.408       .  A
C127        H132   1.083       .  S
C128        C129   1.409       .  A
C128        H133   1.082       .  S
C129        C682   1.405       .  A
C130        C681   1.405   1_455  A
C130        H134   1.083       .  S
C135        C136   1.408       .  A
C135        C140   1.399       .  A
C135        H141   1.082       .  S
C136        C137   1.400       .  A
C137        C138   1.395       .  A
C137        H142   1.078       .  S
C138        C139   1.409       .  A
C138        H143   1.081       .  S
C139        C140   1.404       .  A
C140        H144   1.078       .  S
C145        C146   1.407       .  A
C145        C150   1.402       .  A
C145        H151   1.077       .  S
C146        C147   1.408       .  A
C147        C148   1.399       .  A
C147        H152   1.082       .  S
C148        C149   1.403       .  A
C148        H153   1.078       .  S
C149        C150   1.406       .  A
C150        H154   1.083       .  S
C155        C156   1.410       .  A
C155        C160   1.401       .  A
C155        H161   1.082       .  S
C156        C157   1.405       .  A
C157        C158   1.399       .  A
C157        H162   1.082       .  S
C158        C159   1.406       .  A
C158        H163   1.083       .  S
C159        C160   1.404       .  A
C160        H164   1.083       .  S
C165        C166   1.404       .  A
C165        C170   1.396       .  A
C165        H171   1.082       .  S
C166        C167   1.408       .  A
C167        C168   1.402       .  A
C167        H172   1.082       .  S
C168        C169   1.404       .  A
C168        H173   1.083       .  S
C169        C170   1.405       .  A
C170        H174   1.083       .  S
C175        C176   1.408       .  A
C175        C456   1.401   1_545  A
C175        H181   1.082       .  S
C176        C177   1.407       .  A
C177        C454   1.402   1_545  A
C177        H182   1.082       .  S
C178        C179   1.407       .  A
C178        C453   1.403       .  A
C178        H183   1.083       .  S
C179        C180   1.404       .  A
C180        C451   1.399       .  A
C180        H184   1.083       .  S
C185        H739   1.087       .  S
C185        C186   1.343       .  D
C186        H188   1.086       .  S
H187        C737   1.087       .  S
C189        C628   1.480       .  S
C189        H191   1.086       .  S
C189        C190   1.344   1_455  D
C190        H744   1.087       .  S
H192        C742   1.087       .  S
C193        H747   1.087       .  S
C193        C194   1.342   1_455  D
C194        C627   1.478       .  S
C194        H196   1.086       .  S
H195        C745   1.087       .  S
C197        H751   1.087       .  S
C197        C198   1.343       .  D
C198        H200   1.086       .  S
H199        C749   1.087       .  S
C201        C202   1.407       .  A
C201        C206   1.404       .  A
C201        H207   1.083       .  S
C202        C755   1.405       .  A
C203        C204   1.396       .  A
C203        C754   1.403       .  A
C203        H208   1.083       .  S
C204        C205   1.406       .  A
C204        H209   1.082       .  S
C205        C758   1.407   1_455  A
C206        C757   1.408       .  A
C206        H210   1.082       .  S
C211        C212   1.407       .  A
C211        C216   1.399       .  A
C211        H217   1.083       .  S
C212        C213   1.401       .  A
C213        C214   1.398       .  A
C213        H218   1.083       .  S
C214        C215   1.408       .  A
C214        H219   1.082       .  S
C215        C216   1.404       .  A
C216        H220   1.082       .  S
C221        C222   1.409       .  A
C221        C226   1.400       .  A
C221        H227   1.082       .  S
C222        C223   1.402       .  A
C223        C224   1.401       .  A
C223        H228   1.078       .  S
C224        C225   1.409       .  A
C224        H229   1.081       .  S
C225        C226   1.406       .  A
C226        H230   1.082       .  S
C231        C232   1.407       .  A
C231        C236   1.400       .  A
C231        H237   1.078       .  S
C232        C233   1.409       .  A
C233        C234   1.399       .  A
C233        H238   1.082       .  S
C234        C235   1.403       .  A
C234        H239   1.078       .  S
C235        C236   1.406       .  A
C236        H240   1.083       .  S
C241        C242   1.401       .  A
C241        C246   1.397       .  A
C241        H247   1.079       .  S
C242        C243   1.407       .  A
C243        C244   1.398       .  A
C243        H248   1.083       .  S
C244        C245   1.403       .  A
C244        H249   1.077       .  S
C245        C246   1.409       .  A
C246        H250   1.082       .  S
C251        C252   1.402       .  A
C251        C532   1.397   1_545  A
C251        H257   1.083       .  S
C252        C253   1.406       .  A
C253        C530   1.402   1_545  A
C253        H258   1.082       .  S
C254        C255   1.409       .  A
C254        C529   1.405       .  A
C254        H259   1.082       .  S
C255        C256   1.404       .  A
C256        C527   1.397       .  A
C256        H260   1.078       .  S
C261        H263   1.082       .  S
C261        C262   1.347       .  D
C262        H264   1.087       .  S
C265        H267   1.087       .  S
C265        C266   1.343       .  D
C266        H268   1.087       .  S
C269        H271   1.086       .  S
C269        C270   1.348       .  D
C270        H272   1.087       .  S
C273        H275   1.082       .  S
C273        C274   1.346       .  D
C274        H276   1.087       .  S
O277       Ni285   1.920   1_556  S
O277        C287   1.281       .  A
O278       Ni285   1.917       .  S
O278        C288   1.282       .  A
O279       Ni285   1.924   1_556  S
O279        C289   1.281       .  A
O280       Ni285   1.929       .  S
O280        C290   1.284       .  A
O281       Ni286   1.925   1_554  S
O281        C290   1.282       .  A
O282       Ni286   1.929       .  S
O282        C289   1.284       .  A
O283       Ni286   1.921   1_554  S
O283        C288   1.281       .  A
O284       Ni286   1.916       .  S
O284        C287   1.281       .  A
Ni285      Ni286   2.388   1_554  S
C287        C549   1.476       .  S
C288        C537   1.478       .  S
C289        C545   1.486       .  S
C290        C541   1.486       .  S
C291        C292   1.532       .  S
C291        C297   1.541       .  S
C291        C295   1.537       .  S
C291        C538   1.521       .  S
C292        H299   1.086       .  S
C292        C293   1.364       .  D
C293        C518   1.488       .  S
C293        C294   1.543       .  S
C294        C298   1.549       .  S
C294        C296   1.545       .  S
C294        H300   1.106       .  S
C295        H301   1.086       .  S
C295        C296   1.368       .  D
C296        C528   1.492       .  S
C297        H302   1.080       .  S
C297        C298   1.372       .  D
C298        C508   1.505       .  S
C303        C304   1.535       .  S
C303        C309   1.536       .  S
C303        C307   1.539       .  S
C303        C542   1.522       .  S
C304        H311   1.086       .  S
C304        C305   1.365       .  D
C305        C488   1.485       .  S
C305        C306   1.543       .  S
C306        C310   1.544       .  S
C306        C308   1.546       .  S
C306        H312   1.108       .  S
C307        H313   1.085       .  S
C307        C308   1.375       .  D
C308        C531   1.495       .  S
C309        H314   1.086       .  S
C309        C310   1.367       .  D
C310        C498   1.496       .  S
C315        C868   1.536       .  S
C315        C321   1.530       .  S
C315        C319   1.540       .  S
C315        C473   1.519       .  S
C316        C867   1.540   1_455  S
C316        H323   1.085       .  S
C316        C317   1.371       .  D
C317        C511   1.499       .  S
C317        C870   1.546   1_455  S
C318        C869   1.544       .  S
C318        C322   1.546       .  S
C318        C320   1.548       .  S
C318        H324   1.108       .  S
C319        H325   1.085       .  S
C319        C320   1.373       .  D
C320        C478   1.497       .  S
C321        H326   1.085       .  S
C321        C322   1.365       .  D
C322        C521   1.494       .  S
C327        C880   1.537   1_455  S
C327        C333   1.532       .  S
C327        C331   1.538       .  S
C327        C469   1.512       .  S
C328        C879   1.536       .  S
C328        H335   1.085       .  S
C328        C329   1.370       .  D
C329        C501   1.499       .  S
C329        C882   1.547       .  S
C330        C881   1.544   1_455  S
C330        C334   1.540       .  S
C330        C332   1.544       .  S
C330        H336   1.107       .  S
C331        H337   1.086       .  S
C331        C332   1.370       .  D
C332        C481   1.490       .  S
C333        H338   1.086       .  S
C333        C334   1.363       .  D
C334        C491   1.487       .  S
O339        C901   1.280       .  A
O340       Ni347   1.920       .  S
O340        C902   1.283   1_455  A
O341       Ni347   1.921       .  S
O341        C903   1.283   1_455  A
O342        C904   1.281       .  A
O343        C352   1.284       .  A
O344       Ni348   1.920   1_565  S
O344        C351   1.280       .  A
O345       Ni348   1.925   1_565  S
O345        C350   1.282       .  A
O346        C349   1.283       .  A
Ni347      Ni900   2.389   1_465  S
Ni348      Ni899   2.387   1_545  S
C349        O891   1.281       .  A
C349        C474   1.482       .  S
C350        O892   1.283       .  A
C350        C462   1.484       .  S
C351        O893   1.284       .  A
C351       C1022   1.482       .  S
C352        O894   1.280       .  A
C352       C1017   1.481       .  S
C353        C354   1.535       .  S
C353        C359   1.538       .  S
C353        C357   1.541       .  S
C353        C546   1.522       .  S
C354        H361   1.085       .  S
C354        C355   1.366       .  D
C355        C432   1.494       .  S
C355        C356   1.542       .  S
C356        C360   1.544       .  S
C356        C358   1.542       .  S
C356        H362   1.106       .  S
C357        H363   1.086       .  S
C357        C358   1.373       .  D
C358        C452   1.493       .  S
C359        H364   1.085       .  S
C359        C360   1.369       .  D
C360        C442   1.495       .  S
C365        C366   1.538       .  S
C365        C371   1.530       .  S
C365        C369   1.534       .  S
C365        C550   1.518       .  S
C366        H373   1.080       .  S
C366        C367   1.370       .  D
C367        C422   1.501       .  S
C367        C368   1.552       .  S
C368        C372   1.544       .  S
C368        C370   1.546       .  S
C368        H374   1.107       .  S
C369        H375   1.086       .  S
C369        C370   1.368       .  D
C370        C455   1.492       .  S
C371        H376   1.086       .  S
C371        C372   1.364       .  D
C372        C412   1.487       .  S
C377        C930   1.532       .  S
C377        C383   1.538   1_655  S
C377        C381   1.539       .  S
C377        C466   1.517       .  S
C378        C929   1.532       .  S
C378        H385   1.086       .  S
C378        C379   1.364       .  D
C379        C445   1.491       .  S
C379        C932   1.544       .  S
C380        C931   1.540       .  S
C380        C384   1.542   1_655  S
C380        C382   1.544       .  S
C380        H386   1.108       .  S
C381        H387   1.086       .  S
C381        C382   1.372       .  D
C382        C402   1.490       .  S
C383        H388   1.086       .  S
C383        C384   1.367       .  D
C384        C435   1.488       .  S
C389        C942   1.532       .  S
C389        C395   1.535       .  S
C389        C393   1.539       .  S
C389        C461   1.520       .  S
C390        C941   1.530       .  S
C390        H397   1.085       .  S
C390        C391   1.362       .  D
C391        C415   1.491       .  S
C391        C944   1.546       .  S
C392        C943   1.544       .  S
C392        C396   1.547       .  S
C392        C394   1.547       .  S
C392        H398   1.107       .  S
C393        H399   1.085       .  S
C393        C394   1.373       .  D
C394        C405   1.494       .  S
C395        H400   1.085       .  S
C395        C396   1.368       .  D
C396        C425   1.495       .  S
C401        C402   1.404   1_455  A
C401        C406   1.397       .  A
C401        H407   1.082       .  S
C402        C955   1.407       .  A
C403        C954   1.407       .  A
C403        C404   1.405       .  A
C403        H408   1.083       .  S
C404        C405   1.408       .  A
C404        H409   1.082       .  S
C405        C958   1.405       .  A
C406        C957   1.404   1_455  A
C406        H410   1.082       .  S
C411        C412   1.407       .  A
C411        C416   1.398       .  A
C411        H417   1.083       .  S
C412        C413   1.401       .  A
C413        C414   1.398       .  A
C413        H418   1.080       .  S
C414        C415   1.410       .  A
C414        H419   1.082       .  S
C415        C416   1.402       .  A
C416        H420   1.079       .  S
C421        C422   1.406       .  A
C421        C426   1.401       .  A
C421        H427   1.079       .  S
C422        C423   1.411       .  A
C423        C424   1.400       .  A
C423        H428   1.082       .  S
C424        C425   1.403       .  A
C424        H429   1.077       .  S
C425        C426   1.407       .  A
C426        H430   1.082       .  S
C431        C432   1.408       .  A
C431        C436   1.399       .  A
C431        H437   1.082       .  S
C432        C433   1.406       .  A
C433        C434   1.400       .  A
C433        H438   1.082       .  S
C434        C435   1.406       .  A
C434        H439   1.083       .  S
C435        C436   1.403       .  A
C436        H440   1.083       .  S
C441        C442   1.405       .  A
C441        C446   1.397       .  A
C441        H447   1.081       .  S
C442        C443   1.409       .  A
C443        C444   1.404       .  A
C443        H448   1.082       .  S
C444        C445   1.404       .  A
C444        H449   1.082       .  S
C445        C446   1.406       .  A
C446        H450   1.083       .  S
C451        C452   1.407       .  A
C451        H457   1.082       .  S
C452        C453   1.406       .  A
C453        H458   1.083       .  S
C454        C455   1.407       .  A
C454        H459   1.082       .  S
C455        C456   1.404       .  A
C456        H460   1.083       .  S
C461       H1015   1.087       .  S
C461        C462   1.346       .  D
C462        H464   1.086       .  S
H463       C1013   1.087       .  S
C465        C904   1.480       .  S
C465        H467   1.086       .  S
C465        C466   1.345   1_455  D
C466       H1020   1.087       .  S
H468       C1018   1.087       .  S
C469       H1023   1.087       .  S
C469        C470   1.342   1_455  D
C470        C903   1.476       .  S
C470        H472   1.086       .  S
H471       C1021   1.087       .  S
C473       H1027   1.087       .  S
C473        C474   1.345       .  D
C474        H476   1.086       .  S
H475       C1025   1.087       .  S
C477        C478   1.408       .  A
C477        C482   1.406       .  A
C477        H483   1.083       .  S
C478       C1031   1.405       .  A
C479       C1030   1.404       .  A
C479        C480   1.395       .  A
C479        H484   1.083       .  S
C480        C481   1.404       .  A
C480        H485   1.083       .  S
C481       C1034   1.408   1_455  A
C482       C1033   1.409       .  A
C482        H486   1.082       .  S
C487        C488   1.407       .  A
C487        C492   1.400       .  A
C487        H493   1.083       .  S
C488        C489   1.402       .  A
C489        C490   1.397       .  A
C489        H494   1.083       .  S
C490        C491   1.407       .  A
C490        H495   1.082       .  S
C491        C492   1.404       .  A
C492        H496   1.083       .  S
C497        C498   1.406       .  A
C497        C502   1.400       .  A
C497        H503   1.082       .  S
C498        C499   1.405       .  A
C499        C500   1.402       .  A
C499        H504   1.073       .  S
C500        C501   1.408       .  A
C500        H505   1.082       .  S
C501        C502   1.406       .  A
C502        H506   1.081       .  S
C507        C508   1.408       .  A
C507        C512   1.402       .  A
C507        H513   1.078       .  S
C508        C509   1.410       .  A
C509        C510   1.399       .  A
C509        H514   1.081       .  S
C510        C511   1.403       .  A
C510        H515   1.078       .  S
C511        C512   1.408       .  A
C512        H516   1.082       .  S
C517        C518   1.401       .  A
C517        C522   1.396       .  A
C517        H523   1.079       .  S
C518        C519   1.407       .  A
C519        C520   1.400       .  A
C519        H524   1.083       .  S
C520        C521   1.404       .  A
C520        H525   1.078       .  S
C521        C522   1.408       .  A
C522        H526   1.082       .  S
C527        C528   1.403       .  A
C527        H533   1.083       .  S
C528        C529   1.407       .  A
C529        H534   1.083       .  S
C530        C531   1.407       .  A
C530        H535   1.082       .  S
C531        C532   1.406       .  A
C532        H536   1.072       .  S
C537        H539   1.081       .  S
C537        C538   1.347       .  D
C538        H540   1.087       .  S
C541        H543   1.086       .  S
C541        C542   1.347       .  D
C542        H544   1.086       .  S
C545        H547   1.086       .  S
C545        C546   1.346       .  D
C546        H548   1.087       .  S
C549        H551   1.081       .  S
C549        C550   1.346       .  D
C550        H552   1.087       .  S
O553       Ni561   1.920   1_556  S
O553        C563   1.281       .  A
O554       Ni561   1.919       .  S
O554        C564   1.282       .  A
O555       Ni561   1.926   1_556  S
O555        C565   1.282       .  A
O556       Ni561   1.928       .  S
O556        C566   1.284       .  A
O557       Ni562   1.922   1_554  S
O557        C566   1.281       .  A
O558       Ni562   1.927       .  S
O558        C565   1.283       .  A
O559       Ni562   1.919   1_554  S
O559        C564   1.280       .  A
O560       Ni562   1.912       .  S
O560        C563   1.281       .  A
Ni561      Ni562   2.388   1_554  S
C563        C825   1.475       .  S
C564        C813   1.478       .  S
C565        C821   1.486       .  S
C566        C817   1.483       .  S
C567        C568   1.531       .  S
C567        C573   1.543       .  S
C567        C571   1.536       .  S
C567        C814   1.519       .  S
C568        H575   1.086       .  S
C568        C569   1.363       .  D
C569        C794   1.486       .  S
C569        C570   1.541       .  S
C570        C574   1.546       .  S
C570        C572   1.545       .  S
C570        H576   1.106       .  S
C571        H577   1.086       .  S
C571        C572   1.368       .  D
C572        C804   1.491       .  S
C573        H578   1.081       .  S
C573        C574   1.372       .  D
C574        C784   1.501       .  S
C579        C580   1.535       .  S
C579        C585   1.535       .  S
C579        C583   1.539       .  S
C579        C818   1.519       .  S
C580        H587   1.086       .  S
C580        C581   1.365       .  D
C581        C764   1.484       .  S
C581        C582   1.542       .  S
C582        C586   1.541       .  S
C582        C584   1.545       .  S
C582        H588   1.109       .  S
C583        H589   1.085       .  S
C583        C584   1.374       .  D
C584        C807   1.494       .  S
C585        H590   1.086       .  S
C585        C586   1.365       .  D
C586        C774   1.487       .  S
C591        C597   1.530       .  S
C591        C595   1.537       .  S
C591        C749   1.514       .  S
C592        H599   1.085       .  S
C592        C593   1.371       .  D
C593        C787   1.495       .  S
C594        C598   1.545       .  S
C594        C596   1.546       .  S
C594        H600   1.108       .  S
C595        H601   1.086       .  S
C595        C596   1.371       .  D
C596        C754   1.491   1_655  S
C597        H602   1.085       .  S
C597        C598   1.364       .  D
C598        C797   1.492       .  S
C603        C609   1.532       .  S
C603        C607   1.538       .  S
C603        C745   1.517       .  S
C604        H611   1.085       .  S
C604        C605   1.367       .  D
C605        C777   1.490       .  S
C606        C610   1.542       .  S
C606        C608   1.546       .  S
C606        H612   1.107       .  S
C607        H613   1.085       .  S
C607        C608   1.372       .  D
C608        C757   1.494       .  S
C609        H614   1.086       .  S
C609        C610   1.363       .  D
C610        C767   1.487       .  S
O615       Ni899   1.920   1_545  S
O616       Ni623   1.928       .  S
O617       Ni623   1.923       .  S
O618       Ni899   1.924   1_545  S
O619       Ni900   1.923       .  S
O619        C628   1.283   1_655  A
O620       Ni624   1.918       .  S
O620        C627   1.280       .  A
O621       Ni624   1.920       .  S
O621        C626   1.280       .  A
O622       Ni900   1.920       .  S
O622        C625   1.283   1_655  A
Ni623       O891   1.922       .  S
Ni623       O894   1.918       .  S
Ni624       O895   1.922       .  S
Ni624       O898   1.926       .  S
C625        C750   1.478       .  S
C626        C738   1.479       .  S
C629        C630   1.538       .  S
C629        C635   1.537       .  S
C629        C633   1.541       .  S
C629        C822   1.522       .  S
C630        H637   1.086       .  S
C630        C631   1.368       .  D
C631        C708   1.494       .  S
C631        C632   1.542       .  S
C632        C636   1.544       .  S
C632        C634   1.541       .  S
C632        H638   1.107       .  S
C633        H639   1.086       .  S
C633        C634   1.372       .  D
C634        C728   1.492       .  S
C635        H640   1.085       .  S
C635        C636   1.368       .  D
C636        C718   1.491       .  S
C641        C642   1.538       .  S
C641        C647   1.532       .  S
C641        C645   1.534       .  S
C641        C826   1.515       .  S
C642        H649   1.081       .  S
C642        C643   1.370       .  D
C643        C698   1.499       .  S
C643        C644   1.549       .  S
C644        C648   1.543       .  S
C644        C646   1.544       .  S
C644        H650   1.107       .  S
C645        H651   1.086       .  S
C645        C646   1.367       .  D
C646        C731   1.490       .  S
C647        H652   1.086       .  S
C647        C648   1.364       .  D
C648        C688   1.486       .  S
C653        C659   1.538       .  S
C653        C657   1.542       .  S
C653        C742   1.520       .  S
C654        H661   1.086       .  S
C654        C655   1.363       .  D
C655        C721   1.487       .  S
C656        C660   1.542       .  S
C656        C658   1.546       .  S
C656        H662   1.109       .  S
C657        H663   1.086       .  S
C657        C658   1.374       .  D
C658        C678   1.495       .  S
C659        H664   1.086       .  S
C659        C660   1.368       .  D
C660        C711   1.489       .  S
C665        C671   1.534   1_455  S
C665        C669   1.539       .  S
C665        C737   1.515       .  S
C666        H673   1.085       .  S
C666        C667   1.363       .  D
C667        C691   1.492       .  S
C668        C672   1.547   1_455  S
C668        C670   1.545       .  S
C668        H674   1.107       .  S
C669        H675   1.086       .  S
C669        C670   1.372       .  D
C670        C681   1.492   1_455  S
C671        H676   1.085       .  S
C671        C672   1.367       .  D
C672        C701   1.492       .  S
C677        C678   1.405       .  A
C677        C682   1.399       .  A
C677        H683   1.082       .  S
C679        C680   1.405       .  A
C679        H684   1.083       .  S
C680        C681   1.408       .  A
C680        H685   1.082       .  S
C682        H686   1.082       .  S
C687        C688   1.407       .  A
C687        C692   1.399       .  A
C687        H693   1.083       .  S
C688        C689   1.401       .  A
C689        C690   1.397       .  A
C689        H694   1.080       .  S
C690        C691   1.409       .  A
C690        H695   1.082       .  S
C691        C692   1.403       .  A
C692        H696   1.077       .  S
C697        C698   1.406       .  A
C697        C702   1.400       .  A
C697        H703   1.079       .  S
C698        C699   1.410       .  A
C699        C700   1.398       .  A
C699        H704   1.082       .  S
C700        C701   1.402       .  A
C700        H705   1.079       .  S
C701        C702   1.407       .  A
C702        H706   1.083       .  S
C707        C708   1.409       .  A
C707        C712   1.401       .  A
C707        H713   1.082       .  S
C708        C709   1.406       .  A
C709        C710   1.399       .  A
C709        H714   1.082       .  S
C710        C711   1.406       .  A
C710        H715   1.083       .  S
C711        C712   1.404       .  A
C712        H716   1.083       .  S
C717        C718   1.404       .  A
C717        C722   1.396       .  A
C717        H723   1.082       .  S
C718        C719   1.409       .  A
C719        C720   1.403       .  A
C719        H724   1.082       .  S
C720        C721   1.403       .  A
C720        H725   1.083       .  S
C721        C722   1.406       .  A
C722        H726   1.083       .  S
C727        C728   1.406       .  A
C727       C1008   1.400   1_545  A
C727        H733   1.082       .  S
C728        C729   1.406       .  A
C729       C1006   1.403   1_545  A
C729        H734   1.083       .  S
C730       C1005   1.402       .  A
C730        C731   1.407       .  A
C730        H735   1.083       .  S
C731        C732   1.404       .  A
C732       C1003   1.399       .  A
C732        H736   1.083       .  S
C737        C738   1.342   1_455  D
C738        H740   1.087       .  S
C741        H743   1.086       .  S
C741        C742   1.346       .  D
C745        C746   1.345       .  D
C746        H748   1.086       .  S
C749        C750   1.343   1_655  D
C750        H752   1.086       .  S
C753        C754   1.408   1_655  A
C753        C758   1.404       .  A
C753        H759   1.083       .  S
C755        C756   1.398       .  A
C755        H760   1.083       .  S
C756        C757   1.405       .  A
C756        H761   1.082       .  S
C758        H762   1.082       .  S
C763        C764   1.407       .  A
C763        C768   1.400       .  A
C763        H769   1.083       .  S
C764        C765   1.401       .  A
C765        C766   1.398       .  A
C765        H770   1.083       .  S
C766        C767   1.408       .  A
C766        H771   1.082       .  S
C767        C768   1.403       .  A
C768        H772   1.083       .  S
C773        C774   1.404       .  A
C773        C778   1.397       .  A
C773        H779   1.083       .  S
C774        C775   1.404       .  A
C775        C776   1.401       .  A
C775        H780   1.078       .  S
C776        C777   1.407       .  A
C776        H781   1.083       .  S
C777        C778   1.405       .  A
C778        H782   1.082       .  S
C783        C784   1.408       .  A
C783        C788   1.400       .  A
C783        H789   1.077       .  S
C784        C785   1.409       .  A
C785        C786   1.400       .  A
C785        H790   1.082       .  S
C786        C787   1.404       .  A
C786        H791   1.078       .  S
C787        C788   1.405       .  A
C788        H792   1.082       .  S
C793        C794   1.401       .  A
C793        C798   1.398       .  A
C793        H799   1.079       .  S
C794        C795   1.406       .  A
C795        C796   1.397       .  A
C795        H800   1.083       .  S
C796        C797   1.403       .  A
C796        H801   1.077       .  S
C797        C798   1.409       .  A
C798        H802   1.082       .  S
C803        C804   1.402       .  A
C803       C1084   1.395   1_545  A
C803        H809   1.082       .  S
C804        C805   1.408       .  A
C805       C1082   1.405   1_545  A
C805        H810   1.083       .  S
C806       C1081   1.402       .  A
C806        C807   1.407       .  A
C806        H811   1.082       .  S
C807        C808   1.405       .  A
C808       C1079   1.396       .  A
C808        H812   1.077       .  S
C813        H815   1.081       .  S
C813        C814   1.346       .  D
C814        H816   1.087       .  S
C817        H819   1.087       .  S
C817        C818   1.346       .  D
C818        H820   1.087       .  S
C821        H823   1.086       .  S
C821        C822   1.348       .  D
C822        H824   1.087       .  S
C825        H827   1.082       .  S
C825        C826   1.346       .  D
C826        H828   1.087       .  S
O829       Ni837   1.922   1_556  S
O829        C839   1.281       .  A
O830       Ni837   1.918       .  S
O830        C840   1.282       .  A
O831       Ni837   1.923   1_556  S
O831        C841   1.281       .  A
O832       Ni837   1.925       .  S
O832        C842   1.284       .  A
O833       Ni838   1.920   1_554  S
O833        C842   1.281       .  A
O834       Ni838   1.924       .  S
O834        C841   1.283       .  A
O835       Ni838   1.922   1_554  S
O835        C840   1.281       .  A
O836       Ni838   1.917       .  S
O836        C839   1.282       .  A
Ni837      Ni838   2.388   1_554  S
C839       C1101   1.479       .  S
C840       C1089   1.478       .  S
C841       C1097   1.482       .  S
C842       C1093   1.482       .  S
C843        C844   1.532       .  S
C843        C849   1.540       .  S
C843        C847   1.535       .  S
C843       C1090   1.518       .  S
C844        H851   1.086       .  S
C844        C845   1.364       .  D
C845       C1070   1.489       .  S
C845        C846   1.544       .  S
C846        C850   1.546       .  S
C846        C848   1.543       .  S
C846        H852   1.107       .  S
C847        H853   1.086       .  S
C847        C848   1.368       .  D
C848       C1080   1.489       .  S
C849        H854   1.081       .  S
C849        C850   1.371       .  D
C850       C1060   1.497       .  S
C855        C856   1.534       .  S
C855        C861   1.535       .  S
C855        C859   1.539       .  S
C855       C1094   1.517       .  S
C856        H863   1.086       .  S
C856        C857   1.366       .  D
C857       C1040   1.488       .  S
C857        C858   1.544       .  S
C858        C862   1.543       .  S
C858        C860   1.548       .  S
C858        H864   1.107       .  S
C859        H865   1.085       .  S
C859        C860   1.374       .  D
C860       C1083   1.498       .  S
C861        H866   1.086       .  S
C861        C862   1.365       .  D
C862       C1050   1.491       .  S
C867        C873   1.529       .  S
C867        C871   1.539       .  S
C867       C1025   1.519       .  S
C868        H875   1.086       .  S
C868        C869   1.368       .  D
C869       C1063   1.490       .  S
C870        C874   1.545       .  S
C870        C872   1.545       .  S
C870        H876   1.107       .  S
C871        H877   1.086       .  S
C871        C872   1.372       .  D
C872       C1030   1.490   1_655  S
C873        H878   1.085       .  S
C873        C874   1.363       .  D
C874       C1073   1.493       .  S
C879        C885   1.532       .  S
C879        C883   1.541       .  S
C879       C1021   1.519       .  S
C880        H887   1.085       .  S
C880        C881   1.369       .  D
C881       C1053   1.492       .  S
C882        C886   1.543       .  S
C882        C884   1.546       .  S
C882        H888   1.105       .  S
C883        H889   1.085       .  S
C883        C884   1.374       .  D
C884       C1033   1.498       .  S
C885        H890   1.086       .  S
C885        C886   1.364       .  D
C886       C1043   1.491       .  S
O892       Ni899   1.925       .  S
O893       Ni899   1.926       .  S
O895        C904   1.283   1_655  A
O896       Ni900   1.917   1_565  S
O896        C903   1.279       .  A
O897       Ni900   1.917   1_565  S
O897        C902   1.279       .  A
O898        C901   1.284   1_655  A
C901       C1026   1.483       .  S
C902       C1014   1.477       .  S
C905        C906   1.537       .  S
C905        C911   1.535       .  S
C905        C909   1.539       .  S
C905       C1098   1.518       .  S
C906        H913   1.085       .  S
C906        C907   1.368       .  D
C907        C984   1.498       .  S
C907        C908   1.544       .  S
C908        C912   1.545       .  S
C908        C910   1.543       .  S
C908        H914   1.106       .  S
C909        H915   1.086       .  S
C909        C910   1.372       .  D
C910       C1004   1.493       .  S
C911        H916   1.085       .  S
C911        C912   1.367       .  D
C912        C994   1.491       .  S
C917        C918   1.540       .  S
C917        C923   1.531       .  S
C917        C921   1.536       .  S
C917       C1102   1.520       .  S
C918        H925   1.080       .  S
C918        C919   1.373       .  D
C919        C974   1.504       .  S
C919        C920   1.551       .  S
C920        C924   1.544       .  S
C920        C922   1.545       .  S
C920        H926   1.108       .  S
C921        H927   1.086       .  S
C921        C922   1.368       .  D
C922       C1007   1.490       .  S
C923        H928   1.086       .  S
C923        C924   1.363       .  D
C924        C964   1.486       .  S
C929        C935   1.540       .  S
C929        C933   1.538       .  S
C929       C1018   1.517       .  S
C930        H937   1.086       .  S
C930        C931   1.364       .  D
C931        C997   1.487       .  S
C932        C936   1.544       .  S
C932        C934   1.545       .  S
C932        H938   1.108       .  S
C933        H939   1.086       .  S
C933        C934   1.371       .  D
C934        C954   1.491       .  S
C935        H940   1.086       .  S
C935        C936   1.370       .  D
C936        C987   1.493       .  S
C941        C947   1.535   1_455  S
C941        C945   1.537       .  S
C941       C1013   1.511       .  S
C942        H949   1.085       .  S
C942        C943   1.365       .  D
C943        C967   1.492       .  S
C944        C948   1.550   1_455  S
C944        C946   1.547       .  S
C944        H950   1.107   1_455  S
C945        H951   1.086       .  S
C945        C946   1.371       .  D
C946        C957   1.492   1_455  S
C947        H952   1.085       .  S
C947        C948   1.369       .  D
C948        C977   1.498       .  S
C953        C954   1.404       .  A
C953        C958   1.398       .  A
C953        H959   1.083       .  S
C955        C956   1.404       .  A
C955        H960   1.083       .  S
C956        C957   1.408       .  A
C956        H961   1.082       .  S
C958        H962   1.082       .  S
C963        C964   1.407       .  A
C963        C968   1.399       .  A
C963        H969   1.083       .  S
C964        C965   1.400       .  A
C965        C966   1.397       .  A
C965        H970   1.080       .  S
C966        C967   1.408       .  A
C966        H971   1.082       .  S
C967        C968   1.404       .  A
C968        H972   1.076       .  S
C973        C974   1.408       .  A
C973        C978   1.403       .  A
C973        H979   1.079       .  S
C974        C975   1.410       .  A
C975        C976   1.398       .  A
C975        H980   1.081       .  S
C976        C977   1.402       .  A
C976        H981   1.079       .  S
C977        C978   1.409       .  A
C978        H982   1.082       .  S
C983        C984   1.409       .  A
C983        C988   1.401       .  A
C983        H989   1.082       .  S
C984        C985   1.407       .  A
C985        C986   1.402       .  A
C985        H990   1.082       .  S
C986        C987   1.407       .  A
C986        H991   1.082       .  S
C987        C988   1.404       .  A
C988        H992   1.083       .  S
C993        C994   1.404       .  A
C993        C998   1.395       .  A
C993        H999   1.081       .  S
C994        C995   1.409       .  A
C995        C996   1.403       .  A
C995       H1000   1.082       .  S
C996        C997   1.404       .  A
C996       H1001   1.083       .  S
C997        C998   1.405       .  A
C998       H1002   1.083       .  S
C1003      C1004   1.406       .  A
C1003      H1009   1.082       .  S
C1004      C1005   1.407       .  A
C1005      H1010   1.082       .  S
C1006      C1007   1.406       .  A
C1006      H1011   1.083       .  S
C1007      C1008   1.404       .  A
C1008      H1012   1.083       .  S
C1013      C1014   1.341   1_455  D
C1014      H1016   1.086       .  S
C1017      H1019   1.086       .  S
C1017      C1018   1.343       .  D
C1021      C1022   1.344       .  D
C1022      H1024   1.086       .  S
C1025      C1026   1.344   1_655  D
C1026      H1028   1.086       .  S
C1029      C1030   1.407   1_655  A
C1029      C1034   1.405       .  A
C1029      H1035   1.083       .  S
C1031      C1032   1.399       .  A
C1031      H1036   1.082       .  S
C1032      C1033   1.406       .  A
C1032      H1037   1.082       .  S
C1034      H1038   1.083       .  S
C1039      C1040   1.407       .  A
C1039      C1044   1.399       .  A
C1039      H1045   1.082       .  S
C1040      C1041   1.403       .  A
C1041      C1042   1.399       .  A
C1041      H1046   1.083       .  S
C1042      C1043   1.409       .  A
C1042      H1047   1.082       .  S
C1043      C1044   1.404       .  A
C1044      H1048   1.082       .  S
C1049      C1050   1.406       .  A
C1049      C1054   1.399       .  A
C1049      H1055   1.083       .  S
C1050      C1051   1.403       .  A
C1051      C1052   1.401       .  A
C1051      H1056   1.077       .  S
C1052      C1053   1.407       .  A
C1052      H1057   1.082       .  S
C1053      C1054   1.406       .  A
C1054      H1058   1.082       .  S
C1059      C1060   1.406       .  A
C1059      C1064   1.400       .  A
C1059      H1065   1.079       .  S
C1060      C1061   1.409       .  A
C1061      C1062   1.398       .  A
C1061      H1066   1.082       .  S
C1062      C1063   1.402       .  A
C1062      H1067   1.078       .  S
C1063      C1064   1.406       .  A
C1064      H1068   1.083       .  S
C1069      C1070   1.401       .  A
C1069      C1074   1.397       .  A
C1069      H1075   1.080       .  S
C1070      C1071   1.408       .  A
C1071      C1072   1.400       .  A
C1071      H1076   1.083       .  S
C1072      C1073   1.403       .  A
C1072      H1077   1.078       .  S
C1073      C1074   1.409       .  A
C1074      H1078   1.082       .  S
C1079      C1080   1.403       .  A
C1079      H1085   1.082       .  S
C1080      C1081   1.406       .  A
C1081      H1086   1.083       .  S
C1082      C1083   1.409       .  A
C1082      H1087   1.082       .  S
C1083      C1084   1.405       .  A
C1084      H1088   1.076       .  S
C1089      H1091   1.082       .  S
C1089      C1090   1.347       .  D
C1090      H1092   1.087       .  S
C1093      H1095   1.087       .  S
C1093      C1094   1.345       .  D
C1094      H1096   1.087       .  S
C1097      H1099   1.087       .  S
C1097      C1098   1.347       .  D
C1098      H1100   1.087       .  S
C1101      H1103   1.081       .  S
C1101      C1102   1.348       .  D
C1102      H1104   1.087       .  S
