geometry optimzed in LAMMPS
_audit_creation_date              2020-11-30 
_audit_creation_method            'lammps2cif' 
_symmetry_space_group_name_H-M    'P1' 
_symmetry_Int_Tables_number       1 
_symmetry_cell_setting            triclinic 
loop_ 
_symmetry_equiv_pos_as_xyz 
  x,y,z 
_cell_length_a                    29.73803366364872 
_cell_length_b                    30.270744489772262 
_cell_length_c                    32.01651162455929 
_cell_angle_alpha                 89.8952992645707 
_cell_angle_beta                  89.49507819375718 
_cell_angle_gamma                 89.77536439624308 
loop_ 
_atom_site_label 
_atom_site_type_symbol 
_atom_site_fract_x 
_atom_site_fract_y 
_atom_site_fract_z 
_atom_site_charge 
N1          N  0.19560931  0.33359400  0.20400530    -0.05650
N2          N  0.18563876  0.36459513  0.17650425    -0.57770
N3          N  0.16464140  0.30308251  0.29984669    -0.05330
N4          N  0.13455181  0.31179899  0.32928961    -0.59900
N5          N  0.19614546  0.33342950  0.29932602    -0.04930
N6          N  0.18856276  0.36320643  0.32849400    -0.57750
N7          N  0.16447335  0.30279458  0.20441431    -0.04610
N8          N  0.13286081  0.31207766  0.17706546    -0.60250
C9          C  0.14666610  0.35050350  0.15970818     0.96520
C10         C  0.15047180  0.34897861  0.34713822     0.96300
N11         N  0.19702379  0.16830122  0.30025526    -0.05840
N12         N  0.18985692  0.13926827  0.33036952    -0.58350
N13         N  0.16507667  0.19831767  0.20456563    -0.03960
N14         N  0.13467669  0.18915256  0.17599917    -0.59600
N15         N  0.19700258  0.16821476  0.20425055    -0.05870
N16         N  0.18866035  0.13816163  0.17564676    -0.58620
N17         N  0.16581527  0.19913210  0.30095156    -0.03600
N18         N  0.13692405  0.19176302  0.33171380    -0.59690
Mn19       Mn  0.16366408  0.25073720  0.25241103     1.18440
C20         C  0.15237103  0.15434865  0.35006854     0.98610
C21         C  0.14973167  0.15142313  0.15770559     0.99270
N22         N  0.30093312  0.33416596  0.29940524    -0.05890
N23         N  0.30879185  0.36449787  0.32791007    -0.62200
N24         N  0.33501403  0.30421005  0.20545338    -0.04690
N25         N  0.36725581  0.31481689  0.17869586    -0.62870
N26         N  0.30259141  0.33386085  0.20442998    -0.05390
N27         N  0.31197368  0.36489518  0.17685687    -0.62460
N28         N  0.33176401  0.30302511  0.30071174    -0.04290
N29         N  0.36086091  0.31135466  0.33044511    -0.63150
Mn30       Mn  0.24877533  0.33479561  0.25147351     1.10660
C31         C  0.34625371  0.34986083  0.34732409     0.99830
C32         C  0.35240089  0.35274993  0.16091917     0.99900
N33         N  0.30442276  0.16882710  0.20395978    -0.05400
N34         N  0.31374442  0.13926298  0.17478405    -0.60780
N35         N  0.33334616  0.19901658  0.30075094    -0.04720
N36         N  0.36245885  0.19035674  0.33067293    -0.57510
N37         N  0.30156235  0.16905226  0.30047613    -0.06030
N38         N  0.30794458  0.14000940  0.33053563    -0.60340
N39         N  0.33579698  0.19941167  0.20460901    -0.05020
N40         N  0.36702480  0.19127823  0.17594663    -0.57530
Mn41       Mn  0.25005158  0.16733007  0.25191404     1.20190
Mn42       Mn  0.33531571  0.25131273  0.25287826     1.10090
Cl43       Cl  0.24947104  0.25103563  0.25164587    -0.85500
C44         C  0.35250411  0.15400591  0.15726885     0.96830
C45         C  0.34608842  0.15340808  0.34931731     0.96630
C46         C  0.44962989  0.45889789  0.46776624    -0.02020
C47         C  0.45130146  0.04175704  0.46687276    -0.02020
C48         C  0.04984850  0.45896842  0.46884164    -0.02020
C49         C  0.04990424  0.04030068  0.46814475    -0.02020
C50         C  0.02397308  0.99978268  0.45200102     0.01030
C51         C  0.47675052  0.99988942  0.45079307     0.01030
C52         C  0.44913394  0.45870928  0.03305224    -0.02020
C53         C  0.04606641  0.45814901  0.03589160    -0.02020
C54         C  0.02138492  0.43442779  0.00096466     0.01030
C55         C  0.47653934  0.43467542  0.00024032     0.01030
C56         C  0.04755242  0.04168310  0.03463606    -0.02020
C57         C  0.47431625  0.99997020  0.04972097     0.01030
C58         C  0.02084676  0.00026610  0.05078972     0.01030
C59         C  0.07735059  0.47770800  0.00356428     0.01030
C60         C  0.07726086  0.02103101  0.00260009     0.01030
C61         C  0.47727510  0.06558985  0.00056801     0.01030
C62         C  0.02233891  0.06586332  0.00039021     0.01030
C63         C  0.44926928  0.04153513  0.03351210    -0.02020
C64         C  0.42051752  0.47909374  0.00069116     0.01030
C65         C  0.42043233  0.02253046  0.99991448     0.01030
C66         C  0.42083287  0.42846479  0.43838312    -0.04870
C67         C  0.44142810  0.39371032  0.41508235    -0.01990
C68         C  0.41783473  0.36998644  0.38438174     0.03000
C69         C  0.37109656  0.37547148  0.37970250    -0.04870
C70         C  0.34850330  0.40617777  0.40551942    -0.01980
C71         C  0.37259658  0.43318491  0.43360917     0.03000
C72         C  0.48549340  0.37703368  0.42422776     0.37650
C73         C  0.29991022  0.41116940  0.40275754     0.37640
C74         C  0.34620857  0.46761493  0.45405537     0.36060
C75         C  0.44290582  0.34027530  0.35693401     0.36060
N76         N  0.32401721  0.49469908  0.46941010    -0.38760
N77         N  0.46326261  0.31682416  0.33532289    -0.38760
N78         N  0.26135614  0.41589616  0.40066683    -0.38200
N79         N  0.51877064  0.35789129  0.42845729    -0.38210
C80         C  0.42684155  0.07190966  0.43389834    -0.04870
C81         C  0.43118774  0.11925500  0.43286341    -0.01990
C82         C  0.40286144  0.14566674  0.40745127     0.03000
C83         C  0.37141737  0.12611951  0.38049179    -0.04870
C84         C  0.36860302  0.07961475  0.37944632    -0.01980
C85         C  0.39843801  0.05328394  0.40290966     0.03000
C86         C  0.46746814  0.14206403  0.45357455     0.37650
C87         C  0.33809415  0.05770752  0.35081796     0.37640
C88         C  0.40843351  0.01102793  0.38420949     0.36060
C89         C  0.40550391  0.19353028  0.41011360     0.36060
N90         N  0.41440270  0.98016530  0.36360678    -0.38760
N91         N  0.40767095  0.23161194  0.41251415    -0.38760
N92         N  0.31429975  0.03978754  0.32804042    -0.38200
N93         N  0.49667240  0.16168515  0.46823650    -0.38210
C94         C  0.12539373  0.37577433  0.37778305    -0.04870
C95         C  0.08997140  0.40246939  0.36438790    -0.01990
C96         C  0.06791551  0.43128116  0.39259722     0.03000
C97         C  0.07916143  0.43215649  0.43621334    -0.04870
C98         C  0.11820834  0.40669942  0.44782348    -0.01980
C99         C  0.14005339  0.37837133  0.41896286     0.03000
C100        C  0.07613672  0.40009441  0.32086884     0.37650
C101        C  0.13987975  0.41000955  0.48786949     0.37640
C102        C  0.17831125  0.35146552  0.43158982     0.36060
C103        C  0.03317019  0.45821962  0.37455466     0.36060
N104        N  0.20877617  0.33016720  0.44161850    -0.38760
N105        N  0.00671398  0.47811666  0.35621778    -0.38760
N106        N  0.16060647  0.40964850  0.51824749    -0.38200
N107        N  0.06508978  0.39801698  0.28635279    -0.38210
C108        C  0.42178697  0.42911421  0.06429977    -0.05010
C109        C  0.42729677  0.38207555  0.06728769    -0.01990
C110        C  0.40568945  0.35757397  0.09935617     0.03000
C111        C  0.37766464  0.37884796  0.12884904    -0.04870
C112        C  0.37029425  0.42470870  0.12488263    -0.01980
C113        C  0.38805536  0.44807986  0.09049997     0.03000
C114        C  0.44774546  0.35622005  0.03420250     0.37650
C115        C  0.34441725  0.44876560  0.15621014     0.37640
C116        C  0.36356168  0.48720727  0.07808559     0.36060
C117        C  0.41033927  0.30967108  0.10014012     0.36060
N118        N  0.34042175  0.51642402  0.06899214    -0.38760
N119        N  0.41402862  0.27158504  0.10035499    -0.38760
N120        N  0.32419391  0.46821613  0.18121912    -0.38200
N121        N  0.46144224  0.33330475  0.00814896    -0.38210
C122        C  0.07830125  0.06762821  0.43545959    -0.04870
C123        C  0.12657364  0.06991830  0.43584076    -0.01990
C124        C  0.15011697  0.10082353  0.41058303     0.03000
C125        C  0.12703478  0.12812822  0.38216239    -0.04870
C126        C  0.07997643  0.12442211  0.37971212    -0.01980
C127        C  0.05690550  0.09193604  0.40319215     0.03000
C128        C  0.15391285  0.03664824  0.45619281     0.37650
C129        C  0.05501068  0.15100239  0.34978853     0.37640
C130        C  0.01607899  0.07670837  0.38459632     0.36060
C131        C  0.19871788  0.10436166  0.41399821     0.36060
N132        N  0.98638952  0.06748700  0.36334467    -0.38760
N133        N  0.23738830  0.10700675  0.41687126    -0.38760
N134        N  0.03479636  0.17186193  0.32606909    -0.38200
N135        N  0.17725714  0.01023616  0.47075652    -0.38210
C136        C  0.06816443  0.42797768  0.07075332    -0.04870
C137        C  0.08012575  0.44505707  0.11113926    -0.01990
C138        C  0.10704922  0.42027915  0.13905339     0.03000
C139        C  0.11930311  0.37660828  0.12987092    -0.04870
C140        C  0.10327818  0.35697469  0.09346836    -0.01980
C141        C  0.07797722  0.38179632  0.06432061     0.03000
C142        C  0.06441661  0.48711647  0.12703412     0.37650
C143        C  0.11482838  0.31099720  0.08498674     0.37640
C144        C  0.06461301  0.35748854  0.02782582     0.36060
C145        C  0.12088201  0.43938791  0.17861351     0.36060
N146        N  0.05737232  0.33409071  0.00027243    -0.38760
N147        N  0.13189386  0.45456476  0.21004753    -0.38760
N148        N  0.12400063  0.27451875  0.07811458    -0.38200
N149        N  0.05381938  0.51990833  0.14292299    -0.38210
C150        C  0.37915622  0.12832883  0.12613952    -0.04870
C151        C  0.40898079  0.09548416  0.13974862    -0.01990
C152        C  0.42945880  0.06600917  0.11092264     0.03000
C153        C  0.42310709  0.07086568  0.06659438    -0.04870
C154        C  0.39033073  0.10323507  0.05411284    -0.01980
C155        C  0.37028434  0.13246450  0.08343981     0.03000
C156        C  0.41702098  0.09082039  0.18432524     0.37650
C157        C  0.36918076  0.10190545  0.01366837     0.37640
C158        C  0.33859084  0.16609254  0.06978723     0.36060
C159        C  0.44979885  0.02706645  0.12910346     0.36060
N160        N  0.31341710  0.19288188  0.05886247    -0.38760
N161        N  0.46287428  0.99542441  0.14539523    -0.38760
N162        N  0.34800656  0.10120968  0.98353184    -0.38200
N163        N  0.42329133  0.08722872  0.21980193    -0.38210
C164        C  0.07488852  0.07142815  0.06595695    -0.04870
C165        C  0.11903919  0.05940982  0.07992836    -0.01990
C166        C  0.14321607  0.08566736  0.10858697     0.03000
C167        C  0.12480073  0.12528457  0.12483570    -0.04870
C168        C  0.08214611  0.13885200  0.10998870    -0.01980
C169        C  0.05767880  0.11258454  0.08123738     0.03000
C170        C  0.14112663  0.01896881  0.06728199     0.37650
C171        C  0.06273212  0.18062365  0.12365245     0.37640
C172        C  0.01514417  0.13040646  0.06749302     0.36060
C173        C  0.18774171  0.07070049  0.12119599     0.36060
N174        N  0.98237974  0.14834871  0.05799767    -0.38760
N175        N  0.22295617  0.05809337  0.13089047    -0.38760
N176        N  0.04684967  0.21384034  0.13408184    -0.38200
N177        N  0.16196526  0.98764714  0.05990262    -0.38210
N178        N  0.19560931  0.33359400  0.70400530    -0.05650
N179        N  0.18563876  0.36459513  0.67650425    -0.57770
N180        N  0.16464140  0.30308251  0.79984669    -0.05330
N181        N  0.13455181  0.31179899  0.82928960    -0.59900
N182        N  0.19614546  0.33342950  0.79932602    -0.04930
N183        N  0.18856276  0.36320643  0.82849400    -0.57750
N184        N  0.16447335  0.30279458  0.70441430    -0.04610
N185        N  0.13286081  0.31207766  0.67706546    -0.60250
C186        C  0.14666610  0.35050350  0.65970818     0.96520
C187        C  0.15047180  0.34897862  0.84713822     0.96300
N188        N  0.19702380  0.16830122  0.80025526    -0.05840
N189        N  0.18985692  0.13926827  0.83036952    -0.58350
N190        N  0.16507668  0.19831767  0.70456563    -0.03960
N191        N  0.13467669  0.18915256  0.67599917    -0.59600
N192        N  0.19700258  0.16821476  0.70425055    -0.05870
N193        N  0.18866035  0.13816163  0.67564676    -0.58620
N194        N  0.16581527  0.19913210  0.80095156    -0.03600
N195        N  0.13692405  0.19176302  0.83171380    -0.59690
Mn196      Mn  0.16366408  0.25073720  0.75241103     1.18440
C197        C  0.15237103  0.15434865  0.85006854     0.98610
C198        C  0.14973167  0.15142314  0.65770559     0.99270
N199        N  0.30093312  0.33416596  0.79940524    -0.05890
N200        N  0.30879185  0.36449787  0.82791007    -0.62200
N201        N  0.33501404  0.30421005  0.70545338    -0.04690
N202        N  0.36725581  0.31481689  0.67869586    -0.62870
N203        N  0.30259141  0.33386086  0.70442998    -0.05390
N204        N  0.31197368  0.36489518  0.67685687    -0.62460
N205        N  0.33176401  0.30302511  0.80071173    -0.04290
N206        N  0.36086091  0.31135466  0.83044511    -0.63150
Mn207      Mn  0.24877534  0.33479561  0.75147351     1.10660
C208        C  0.34625371  0.34986083  0.84732409     0.99830
C209        C  0.35240089  0.35274993  0.66091917     0.99900
N210        N  0.30442276  0.16882710  0.70395978    -0.05400
N211        N  0.31374442  0.13926298  0.67478405    -0.60780
N212        N  0.33334616  0.19901659  0.80075094    -0.04720
N213        N  0.36245886  0.19035674  0.83067293    -0.57510
N214        N  0.30156235  0.16905227  0.80047613    -0.06030
N215        N  0.30794458  0.14000940  0.83053563    -0.60340
N216        N  0.33579698  0.19941167  0.70460901    -0.05020
N217        N  0.36702480  0.19127823  0.67594664    -0.57530
Mn218      Mn  0.25005158  0.16733007  0.75191404     1.20190
Mn219      Mn  0.33531572  0.25131273  0.75287826     1.10090
Cl220      Cl  0.24947105  0.25103563  0.75164587    -0.85500
C221        C  0.35250411  0.15400592  0.65726885     0.96830
C222        C  0.34608843  0.15340809  0.84931731     0.96630
C223        C  0.44962989  0.45889789  0.96776624    -0.02020
C224        C  0.45130147  0.04175704  0.96687276    -0.02020
C225        C  0.04984850  0.45896842  0.96884164    -0.02020
C226        C  0.04990424  0.04030068  0.96814475    -0.02020
C227        C  0.02397308  0.99978268  0.95200102     0.01030
C228        C  0.47675052  0.99988942  0.95079307     0.01030
C229        C  0.44913394  0.45870928  0.53305224    -0.02020
C230        C  0.04606641  0.45814901  0.53589160    -0.02020
C231        C  0.02138492  0.43442779  0.50096466     0.01030
C232        C  0.47653934  0.43467542  0.50024032     0.01030
C233        C  0.04755242  0.04168310  0.53463606    -0.02020
C234        C  0.47431625  0.99997021  0.54972097     0.01030
C235        C  0.02084676  0.00026610  0.55078972     0.01030
C236        C  0.07735059  0.47770800  0.50356428     0.01030
C237        C  0.07726086  0.02103102  0.50260009     0.01030
C238        C  0.47727510  0.06558985  0.50056801     0.01030
C239        C  0.02233891  0.06586332  0.50039021     0.01030
C240        C  0.44926928  0.04153514  0.53351210    -0.02020
C241        C  0.42051752  0.47909374  0.50069115     0.01030
C242        C  0.42043233  0.02253046  0.49991448     0.01030
C243        C  0.42083287  0.42846479  0.93838312    -0.04870
C244        C  0.44142810  0.39371032  0.91508235    -0.01990
C245        C  0.41783472  0.36998644  0.88438175     0.03000
C246        C  0.37109656  0.37547148  0.87970250    -0.04870
C247        C  0.34850330  0.40617778  0.90551942    -0.01980
C248        C  0.37259658  0.43318491  0.93360918     0.03000
C249        C  0.48549340  0.37703368  0.92422776     0.37650
C250        C  0.29991022  0.41116940  0.90275754     0.37640
C251        C  0.34620857  0.46761493  0.95405537     0.36060
C252        C  0.44290582  0.34027530  0.85693401     0.36060
N253        N  0.32401721  0.49469908  0.96941010    -0.38760
N254        N  0.46326260  0.31682416  0.83532290    -0.38760
N255        N  0.26135614  0.41589617  0.90066682    -0.38200
N256        N  0.51877064  0.35789129  0.92845730    -0.38210
C257        C  0.42684155  0.07190966  0.93389834    -0.04870
C258        C  0.43118775  0.11925500  0.93286340    -0.01990
C259        C  0.40286145  0.14566675  0.90745126     0.03000
C260        C  0.37141737  0.12611951  0.88049179    -0.04870
C261        C  0.36860301  0.07961475  0.87944632    -0.01980
C262        C  0.39843801  0.05328394  0.90290967     0.03000
C263        C  0.46746816  0.14206403  0.95357454     0.37650
C264        C  0.33809414  0.05770752  0.85081798     0.37640
C265        C  0.40843350  0.01102793  0.88420950     0.36060
C266        C  0.40550394  0.19353028  0.91011359     0.36060
N267        N  0.41440268  0.98016530  0.86360678    -0.38760
N268        N  0.40767098  0.23161194  0.91251413    -0.38760
N269        N  0.31429973  0.03978754  0.82804045    -0.38200
N270        N  0.49667242  0.16168514  0.96823648    -0.38210
C271        C  0.12539373  0.37577434  0.87778305    -0.04870
C272        C  0.08997140  0.40246939  0.86438790    -0.01990
C273        C  0.06791550  0.43128116  0.89259722     0.03000
C274        C  0.07916143  0.43215649  0.93621334    -0.04870
C275        C  0.11820835  0.40669942  0.94782347    -0.01980
C276        C  0.14005339  0.37837134  0.91896285     0.03000
C277        C  0.07613671  0.40009441  0.82086884     0.37650
C278        C  0.13987976  0.41000956  0.98786949     0.37640
C279        C  0.17831125  0.35146552  0.93158981     0.36060
C280        C  0.03317018  0.45821961  0.87455466     0.36060
N281        N  0.20877618  0.33016721  0.94161850    -0.38760
N282        N  0.00671397  0.47811665  0.85621778    -0.38760
N283        N  0.16060648  0.40964851  0.01824749    -0.38200
N284        N  0.06508977  0.39801697  0.78635279    -0.38210
C285        C  0.42178697  0.42911421  0.56429977    -0.05010
C286        C  0.42729676  0.38207555  0.56728768    -0.01990
C287        C  0.40568945  0.35757397  0.59935617     0.03000
C288        C  0.37766464  0.37884796  0.62884904    -0.04870
C289        C  0.37029425  0.42470870  0.62488263    -0.01980
C290        C  0.38805536  0.44807986  0.59049997     0.03000
C291        C  0.44774544  0.35622005  0.53420249     0.37650
C292        C  0.34441726  0.44876560  0.65621014     0.37640
C293        C  0.36356168  0.48720727  0.57808560     0.36060
C294        C  0.41033926  0.30967108  0.60014012     0.36060
N295        N  0.34042175  0.51642402  0.56899214    -0.38760
N296        N  0.41402861  0.27158504  0.60035498    -0.38760
N297        N  0.32419392  0.46821613  0.68121913    -0.38200
N298        N  0.46144221  0.33330475  0.50814894    -0.38210
C299        C  0.07830125  0.06762821  0.93545959    -0.04870
C300        C  0.12657365  0.06991832  0.93584077    -0.01990
C301        C  0.15011697  0.10082354  0.91058304     0.03000
C302        C  0.12703478  0.12812822  0.88216239    -0.04870
C303        C  0.07997643  0.12442209  0.87971211    -0.01980
C304        C  0.05690551  0.09193603  0.90319214     0.03000
C305        C  0.15391286  0.03664827  0.95619284     0.37650
C306        C  0.05501069  0.15100235  0.84978850     0.37640
C307        C  0.01607900  0.07670835  0.88459632     0.36060
C308        C  0.19871788  0.10436169  0.91399823     0.36060
N309        N  0.98638952  0.06748697  0.86334466    -0.38760
N310        N  0.23738829  0.10700680  0.91687129    -0.38760
N311        N  0.03479637  0.17186188  0.82606904    -0.38200
N312        N  0.17725715  0.01023621  0.97075656    -0.38210
C313        C  0.06816443  0.42797768  0.57075332    -0.04870
C314        C  0.08012575  0.44505707  0.61113926    -0.01990
C315        C  0.10704922  0.42027915  0.63905338     0.03000
C316        C  0.11930311  0.37660828  0.62987092    -0.04870
C317        C  0.10327818  0.35697469  0.59346836    -0.01980
C318        C  0.07797722  0.38179632  0.56432061     0.03000
C319        C  0.06441661  0.48711647  0.62703412     0.37650
C320        C  0.11482836  0.31099719  0.58498674     0.37640
C321        C  0.06461299  0.35748853  0.52782582     0.36060
C322        C  0.12088202  0.43938791  0.67861350     0.36060
N323        N  0.05737230  0.33409071  0.50027244    -0.38760
N324        N  0.13189387  0.45456477  0.71004752    -0.38760
N325        N  0.12400061  0.27451874  0.57811459    -0.38200
N326        N  0.05381938  0.51990832  0.64292299    -0.38210
C327        C  0.37915622  0.12832883  0.62613952    -0.04870
C328        C  0.40898080  0.09548417  0.63974861    -0.01990
C329        C  0.42945881  0.06600918  0.61092264     0.03000
C330        C  0.42310709  0.07086568  0.56659438    -0.04870
C331        C  0.39033073  0.10323507  0.55411284    -0.01980
C332        C  0.37028433  0.13246449  0.58343981     0.03000
C333        C  0.41702100  0.09082042  0.68432524     0.37650
C334        C  0.36918075  0.10190544  0.51366837     0.37640
C335        C  0.33859082  0.16609253  0.56978724     0.36060
C336        C  0.44979886  0.02706646  0.62910346     0.36060
N337        N  0.31341707  0.19288185  0.55886248    -0.38760
N338        N  0.46287430  0.99542443  0.64539523    -0.38760
N339        N  0.34800655  0.10120966  0.48353185    -0.38200
N340        N  0.42329136  0.08722875  0.71980192    -0.38210
C341        C  0.07488852  0.07142815  0.56595695    -0.04870
C342        C  0.11903920  0.05940983  0.57992835    -0.01990
C343        C  0.14321608  0.08566737  0.60858696     0.03000
C344        C  0.12480074  0.12528458  0.62483570    -0.04870
C345        C  0.08214611  0.13885199  0.60998870    -0.01980
C346        C  0.05767879  0.11258454  0.58123738     0.03000
C347        C  0.14112664  0.01896883  0.56728197     0.37650
C348        C  0.06273211  0.18062364  0.62365247     0.37640
C349        C  0.01514417  0.13040646  0.56749303     0.36060
C350        C  0.18774173  0.07070052  0.62119596     0.36060
N351        N  0.98237973  0.14834871  0.55799768    -0.38760
N352        N  0.22295620  0.05809341  0.63089042    -0.38760
N353        N  0.04684965  0.21384033  0.63408187    -0.38200
N354        N  0.16196528  0.98764716  0.55990259    -0.38210
N355        N  0.19560616  0.83359269  0.20400520    -0.05650
N356        N  0.18563413  0.86459416  0.17650494    -0.57770
N357        N  0.16463952  0.80308142  0.29984638    -0.05330
N358        N  0.13454930  0.81179834  0.32928864    -0.59900
N359        N  0.19614325  0.83342872  0.29932551    -0.04930
N360        N  0.18855980  0.86320630  0.32849270    -0.57750
N361        N  0.16447100  0.80279250  0.20441425    -0.04610
N362        N  0.13285766  0.81207514  0.17706605    -0.60250
C363        C  0.14666161  0.85050166  0.15970929     0.96520
C364        C  0.15046860  0.84897865  0.34713656     0.96300
N365        N  0.19702478  0.66830041  0.30025575    -0.05840
N366        N  0.18985843  0.63926781  0.33037040    -0.58350
N367        N  0.16507706  0.69831578  0.20456618    -0.03960
N368        N  0.13467779  0.68915101  0.17599906    -0.59600
N369        N  0.19700319  0.66821311  0.20425112    -0.05870
N370        N  0.18866176  0.63816036  0.17564674    -0.58620
N371        N  0.16581616  0.69913117  0.30095214    -0.03600
N372        N  0.13692557  0.69176245  0.33171490    -0.59690
Mn373      Mn  0.16366338  0.75073553  0.25241124     1.18440
C374        C  0.15237283  0.65434833  0.35006982     0.98610
C375        C  0.14973337  0.65142204  0.15770515     0.99270
N376        N  0.30093105  0.83416619  0.29940434    -0.05890
N377        N  0.30878961  0.86449835  0.32790901    -0.62200
N378        N  0.33501146  0.80420974  0.20545259    -0.04690
N379        N  0.36725253  0.81481639  0.17869434    -0.62870
N380        N  0.30258831  0.83385998  0.20442896    -0.05390
N381        N  0.31196949  0.86489363  0.17685488    -0.62460
N382        N  0.33176225  0.80302563  0.30071093    -0.04290
N383        N  0.36085914  0.81135563  0.33044417    -0.63150
Mn384      Mn  0.24877281  0.83479492  0.25147289     1.10660
C385        C  0.34625171  0.84986178  0.34732298     0.99830
C386        C  0.35239660  0.85274861  0.16091685     0.99900
N387        N  0.30442323  0.66882646  0.20395990    -0.05400
N388        N  0.31374543  0.63926223  0.17478439    -0.60780
N389        N  0.33334650  0.69901685  0.30075080    -0.04720
N390        N  0.36245986  0.69035697  0.33067224    -0.57510
N391        N  0.30156311  0.66905210  0.30047614    -0.06030
N392        N  0.30794622  0.64000892  0.33053520    -0.60340
N393        N  0.33579691  0.69941156  0.20460891    -0.05020
N394        N  0.36702489  0.69127840  0.17594662    -0.57530
Mn395      Mn  0.25005222  0.66732922  0.25191434     1.20190
Mn396      Mn  0.33531472  0.75131293  0.25287785     1.10090
Cl397      Cl  0.24947017  0.75103489  0.25164578    -0.85500
C398        C  0.35250490  0.65400566  0.15726911     0.96830
C399        C  0.34609021  0.65340784  0.34931641     0.96630
C400        C  0.44962871  0.95889781  0.46776567    -0.02020
C401        C  0.45130283  0.54175712  0.46687251    -0.02020
C402        C  0.04984754  0.95896885  0.46884137    -0.02020
C403        C  0.04990522  0.54030001  0.46814353    -0.02020
C404        C  0.02397395  0.49978201  0.45200078     0.01030
C405        C  0.47675156  0.49988912  0.45079313     0.01030
C406        C  0.44913272  0.95870842  0.03305186    -0.02020
C407        C  0.04606507  0.95814828  0.03589139    -0.02020
C408        C  0.02138380  0.93442742  0.00096402     0.01030
C409        C  0.47653815  0.93467511  0.00023956     0.01030
C410        C  0.04755457  0.54168366  0.03463471    -0.02020
C411        C  0.47431797  0.49997116  0.04972089     0.01030
C412        C  0.02084856  0.50026705  0.05078954     0.01030
C413        C  0.07734932  0.97770795  0.00356459     0.01030
C414        C  0.07726232  0.52103096  0.00259871     0.01030
C415        C  0.47727682  0.56559017  0.00056732     0.01030
C416        C  0.02234062  0.56586346  0.00038895     0.01030
C417        C  0.44927114  0.54153599  0.03351185    -0.02020
C418        C  0.42051644  0.97909314  0.00069074     0.01030
C419        C  0.42043372  0.52253107  0.99991458     0.01030
C420        C  0.42083106  0.92846492  0.43838271    -0.04870
C421        C  0.44142576  0.89371008  0.41508222    -0.01990
C422        C  0.41783254  0.86998695  0.38438105     0.03000
C423        C  0.37109450  0.87547257  0.37970138    -0.04870
C424        C  0.34850140  0.90617902  0.40551828    -0.01980
C425        C  0.37259472  0.93318526  0.43360887     0.03000
C426        C  0.48549017  0.87703218  0.42422869     0.37650
C427        C  0.29990860  0.91117228  0.40275507     0.37640
C428        C  0.34620670  0.96761467  0.45405598     0.36060
C429        C  0.44290380  0.84027618  0.35693308     0.36060
N430        N  0.32401521  0.99469834  0.46941131    -0.38760
N431        N  0.46326072  0.81682537  0.33532176    -0.38760
N432        N  0.26135480  0.91590063  0.40066317    -0.38200
N433        N  0.51876702  0.85788937  0.42845868    -0.38210
C434        C  0.42684317  0.57190966  0.43389786    -0.04870
C435        C  0.43118879  0.61925511  0.43286325    -0.01990
C436        C  0.40286277  0.64566665  0.40745070     0.03000
C437        C  0.37141978  0.62611917  0.38049035    -0.04870
C438        C  0.36860676  0.57961433  0.37944381    -0.01980
C439        C  0.39844100  0.55328369  0.40290822     0.03000
C440        C  0.46746847  0.64206459  0.45357506     0.37650
C441        C  0.33810031  0.55770709  0.35081326     0.37640
C442        C  0.40843748  0.51102747  0.38420878     0.36060
C443        C  0.40550466  0.69353022  0.41011323     0.36060
N444        N  0.41440822  0.48016445  0.36360694    -0.38760
N445        N  0.40767135  0.73161189  0.41251388    -0.38760
N446        N  0.31430784  0.53978718  0.32803393    -0.38200
N447        N  0.49667221  0.66168613  0.46823739    -0.38210
C448        C  0.12539081  0.87577420  0.37778171    -0.04870
C449        C  0.08996563  0.90246627  0.36438781    -0.01990
C450        C  0.06791087  0.93127892  0.39259714     0.03000
C451        C  0.07916035  0.93215756  0.43621231    -0.04870
C452        C  0.11821069  0.90670451  0.44782044    -0.01980
C453        C  0.14005431  0.87837519  0.41896002     0.03000
C454        C  0.07612696  0.90008753  0.32087009     0.37650
C455        C  0.13988589  0.91001833  0.48786432     0.37640
C456        C  0.17831404  0.85147132  0.43158595     0.36060
C457        C  0.03316397  0.95821588  0.37455540     0.36060
N458        N  0.20878024  0.83017437  0.44161385    -0.38760
N459        N  0.00670664  0.97811161  0.35621871    -0.38760
N460        N  0.16061511  0.90965823  0.51824079    -0.38200
N461        N  0.06507674  0.89800712  0.28635515    -0.38210
C462        C  0.42178574  0.92911299  0.06429912    -0.05010
C463        C  0.42729930  0.88207486  0.06729004    -0.01990
C464        C  0.40568840  0.85757299  0.09935628     0.03000
C465        C  0.37766003  0.87884659  0.12884648    -0.04870
C466        C  0.37028798  0.92470688  0.12487844    -0.01980
C467        C  0.38805077  0.94807779  0.09049638     0.03000
C468        C  0.44776024  0.85621930  0.03421134     0.37650
C469        C  0.34440802  0.94876377  0.15620389     0.37640
C470        C  0.36355787  0.98720537  0.07808102     0.36060
C471        C  0.41033907  0.80967016  0.10014098     0.36060
N472        N  0.34041870  0.01642249  0.06898698    -0.38760
N473        N  0.41402900  0.77158417  0.10035634    -0.38760
N474        N  0.32418237  0.96821438  0.18121124    -0.38200
N475        N  0.46146748  0.83330349  0.00816287    -0.38210
C476        C  0.07830189  0.56762641  0.43545777    -0.04870
C477        C  0.12657431  0.56991192  0.43583597    -0.01990
C478        C  0.15011843  0.60081845  0.41058053     0.03000
C479        C  0.12703650  0.62812772  0.38216346    -0.04870
C480        C  0.07997755  0.62442524  0.37971538    -0.01980
C481        C  0.05690595  0.59193807  0.40319326     0.03000
C482        C  0.15391134  0.53663457  0.45617997     0.37650
C483        C  0.05501127  0.65101034  0.34979600     0.37640
C484        C  0.01607971  0.57671180  0.38459588     0.36060
C485        C  0.19871973  0.60435289  0.41399440     0.36060
N486        N  0.98639076  0.56749153  0.36334314    -0.38760
N487        N  0.23739045  0.60699509  0.41686653    -0.38760
N488        N  0.03479639  0.67187370  0.32607994    -0.38200
N489        N  0.17725362  0.51021644  0.47073675    -0.38210
C490        C  0.06816305  0.92797629  0.07075273    -0.04870
C491        C  0.08011604  0.94505259  0.11114228    -0.01990
C492        C  0.10703654  0.92027374  0.13905826     0.03000
C493        C  0.11929808  0.87660585  0.12987226    -0.04870
C494        C  0.10328228  0.85697485  0.09346510    -0.01980
C495        C  0.07798345  0.88179702  0.06431621     0.03000
C496        C  0.06440607  0.98711192  0.12703670     0.37650
C497        C  0.11483880  0.81099935  0.08498096     0.37640
C498        C  0.06462870  0.85749175  0.02781694     0.36060
C499        C  0.12085939  0.93937829  0.17862330     0.36060
N500        N  0.05739697  0.83409544  0.00026027    -0.38760
N501        N  0.13186328  0.95455159  0.21006133    -0.38760
N502        N  0.12401584  0.77452241  0.07810704    -0.38200
N503        N  0.05380883  0.01990431  0.14292458    -0.38210
C504        C  0.37915736  0.62832904  0.12613964    -0.04870
C505        C  0.40898348  0.59548566  0.13974855    -0.01990
C506        C  0.42946248  0.56601137  0.11092248     0.03000
C507        C  0.42310943  0.57086689  0.06659423    -0.04870
C508        C  0.39033209  0.60323545  0.05411289    -0.01980
C509        C  0.37028500  0.63246431  0.08343999     0.03000
C510        C  0.41702441  0.59082252  0.18432512     0.37650
C511        C  0.36918226  0.60190570  0.01366835     0.37640
C512        C  0.33859035  0.66609140  0.06978762     0.36060
C513        C  0.44980602  0.52707047  0.12910343     0.36060
N514        N  0.31341569  0.69287999  0.05886306    -0.38760
N515        N  0.46288435  0.49542967  0.14539531    -0.38760
N516        N  0.34800827  0.60120981  0.98353170    -0.38200
N517        N  0.42329536  0.58723130  0.21980175    -0.38210
C518        C  0.07489184  0.57142908  0.06595432    -0.04870
C519        C  0.11904414  0.55941229  0.07992310    -0.01990
C520        C  0.14322028  0.58566904  0.10858292     0.03000
C521        C  0.12480341  0.62528447  0.12483407    -0.04870
C522        C  0.08214832  0.63885148  0.10998796    -0.01980
C523        C  0.05768120  0.61258438  0.08123636     0.03000
C524        C  0.14113424  0.51897393  0.06727235     0.37650
C525        C  0.06273376  0.68062257  0.12365267     0.37640
C526        C  0.01514628  0.63040613  0.06749264     0.36060
C527        C  0.18774683  0.57070344  0.12119048     0.36060
N528        N  0.98238176  0.64834858  0.05799785    -0.38760
N529        N  0.22296205  0.55809737  0.13088381    -0.38760
N530        N  0.04685103  0.71383892  0.13408268    -0.38200
N531        N  0.16197436  0.48765441  0.05988805    -0.38210
N532        N  0.19560616  0.83359269  0.70400520    -0.05650
N533        N  0.18563413  0.86459416  0.67650494    -0.57770
N534        N  0.16463952  0.80308142  0.79984638    -0.05330
N535        N  0.13454930  0.81179834  0.82928864    -0.59900
N536        N  0.19614326  0.83342872  0.79932550    -0.04930
N537        N  0.18855980  0.86320630  0.82849270    -0.57750
N538        N  0.16447100  0.80279249  0.70441425    -0.04610
N539        N  0.13285766  0.81207514  0.67706605    -0.60250
C540        C  0.14666162  0.85050166  0.65970928     0.96520
C541        C  0.15046860  0.84897865  0.84713656     0.96300
N542        N  0.19702478  0.66830041  0.80025575    -0.05840
N543        N  0.18985843  0.63926781  0.83037039    -0.58350
N544        N  0.16507706  0.69831578  0.70456618    -0.03960
N545        N  0.13467779  0.68915101  0.67599906    -0.59600
N546        N  0.19700319  0.66821311  0.70425111    -0.05870
N547        N  0.18866176  0.63816036  0.67564674    -0.58620
N548        N  0.16581616  0.69913117  0.80095213    -0.03600
N549        N  0.13692556  0.69176245  0.83171489    -0.59690
Mn550      Mn  0.16366339  0.75073553  0.75241123     1.18440
C551        C  0.15237282  0.65434833  0.85006981     0.98610
C552        C  0.14973338  0.65142204  0.65770515     0.99270
N553        N  0.30093105  0.83416619  0.79940434    -0.05890
N554        N  0.30878961  0.86449835  0.82790901    -0.62200
N555        N  0.33501146  0.80420974  0.70545259    -0.04690
N556        N  0.36725254  0.81481639  0.67869434    -0.62870
N557        N  0.30258832  0.83385997  0.70442896    -0.05390
N558        N  0.31196949  0.86489363  0.67685488    -0.62460
N559        N  0.33176225  0.80302563  0.80071093    -0.04290
N560        N  0.36085914  0.81135563  0.83044417    -0.63150
Mn561      Mn  0.24877281  0.83479492  0.75147289     1.10660
C562        C  0.34625171  0.84986178  0.84732298     0.99830
C563        C  0.35239661  0.85274861  0.66091685     0.99900
N564        N  0.30442323  0.66882646  0.70395990    -0.05400
N565        N  0.31374543  0.63926223  0.67478439    -0.60780
N566        N  0.33334650  0.69901685  0.80075080    -0.04720
N567        N  0.36245987  0.69035697  0.83067224    -0.57510
N568        N  0.30156311  0.66905210  0.80047614    -0.06030
N569        N  0.30794622  0.64000892  0.83053520    -0.60340
N570        N  0.33579691  0.69941156  0.70460891    -0.05020
N571        N  0.36702489  0.69127840  0.67594662    -0.57530
Mn572      Mn  0.25005223  0.66732922  0.75191434     1.20190
Mn573      Mn  0.33531472  0.75131293  0.75287785     1.10090
Cl574      Cl  0.24947017  0.75103489  0.75164578    -0.85500
C575        C  0.35250490  0.65400566  0.65726911     0.96830
C576        C  0.34609021  0.65340784  0.84931641     0.96630
C577        C  0.44962871  0.95889781  0.96776567    -0.02020
C578        C  0.45130283  0.54175712  0.96687251    -0.02020
C579        C  0.04984754  0.95896885  0.96884137    -0.02020
C580        C  0.04990522  0.54030001  0.96814353    -0.02020
C581        C  0.02397395  0.49978201  0.95200078     0.01030
C582        C  0.47675156  0.49988912  0.95079313     0.01030
C583        C  0.44913272  0.95870842  0.53305186    -0.02020
C584        C  0.04606507  0.95814829  0.53589139    -0.02020
C585        C  0.02138380  0.93442743  0.50096403     0.01030
C586        C  0.47653815  0.93467511  0.50023956     0.01030
C587        C  0.04755457  0.54168366  0.53463471    -0.02020
C588        C  0.47431797  0.49997116  0.54972089     0.01030
C589        C  0.02084856  0.50026705  0.55078954     0.01030
C590        C  0.07734932  0.97770795  0.50356459     0.01030
C591        C  0.07726232  0.52103096  0.50259871     0.01030
C592        C  0.47727681  0.56559017  0.50056732     0.01030
C593        C  0.02234062  0.56586346  0.50038895     0.01030
C594        C  0.44927114  0.54153599  0.53351185    -0.02020
C595        C  0.42051643  0.97909314  0.50069074     0.01030
C596        C  0.42043372  0.52253107  0.49991458     0.01030
C597        C  0.42083106  0.92846492  0.93838271    -0.04870
C598        C  0.44142576  0.89371008  0.91508223    -0.01990
C599        C  0.41783254  0.86998695  0.88438105     0.03000
C600        C  0.37109450  0.87547256  0.87970138    -0.04870
C601        C  0.34850140  0.90617902  0.90551828    -0.01980
C602        C  0.37259472  0.93318526  0.93360887     0.03000
C603        C  0.48549016  0.87703217  0.92422870     0.37650
C604        C  0.29990860  0.91117228  0.90275507     0.37640
C605        C  0.34620670  0.96761466  0.95405598     0.36060
C606        C  0.44290379  0.84027617  0.85693308     0.36060
N607        N  0.32401522  0.99469834  0.96941131    -0.38760
N608        N  0.46326072  0.81682536  0.83532176    -0.38760
N609        N  0.26135480  0.91590064  0.90066316    -0.38200
N610        N  0.51876701  0.85788936  0.92845869    -0.38210
C611        C  0.42684317  0.57190966  0.93389786    -0.04870
C612        C  0.43118880  0.61925511  0.93286324    -0.01990
C613        C  0.40286277  0.64566665  0.90745070     0.03000
C614        C  0.37141978  0.62611917  0.88049035    -0.04870
C615        C  0.36860676  0.57961433  0.87944382    -0.01980
C616        C  0.39844100  0.55328369  0.90290822     0.03000
C617        C  0.46746848  0.64206459  0.95357506     0.37650
C618        C  0.33810030  0.55770709  0.85081327     0.37640
C619        C  0.40843748  0.51102747  0.88420878     0.36060
C620        C  0.40550467  0.69353022  0.91011322     0.36060
N621        N  0.41440821  0.48016446  0.86360694    -0.38760
N622        N  0.40767136  0.73161189  0.91251387    -0.38760
N623        N  0.31430782  0.53978718  0.82803395    -0.38200
N624        N  0.49667222  0.66168613  0.96823738    -0.38210
C625        C  0.12539081  0.87577420  0.87778170    -0.04870
C626        C  0.08996562  0.90246627  0.86438781    -0.01990
C627        C  0.06791086  0.93127891  0.89259714     0.03000
C628        C  0.07916035  0.93215755  0.93621231    -0.04870
C629        C  0.11821070  0.90670452  0.94782043    -0.01980
C630        C  0.14005432  0.87837520  0.91896002     0.03000
C631        C  0.07612694  0.90008752  0.82087009     0.37650
C632        C  0.13988590  0.91001834  0.98786431     0.37640
C633        C  0.17831405  0.85147134  0.93158594     0.36060
C634        C  0.03316396  0.95821586  0.87455540     0.36060
N635        N  0.20878026  0.83017439  0.94161384    -0.38760
N636        N  0.00670661  0.97811157  0.85621871    -0.38760
N637        N  0.16061513  0.90965825  0.01824078    -0.38200
N638        N  0.06507673  0.89800710  0.78635515    -0.38210
C639        C  0.42178574  0.92911299  0.56429912    -0.05010
C640        C  0.42729929  0.88207485  0.56729003    -0.01990
C641        C  0.40568840  0.85757299  0.59935627     0.03000
C642        C  0.37766004  0.87884659  0.62884648    -0.04870
C643        C  0.37028800  0.92470688  0.62487845    -0.01980
C644        C  0.38805078  0.94807779  0.59049639     0.03000
C645        C  0.44776020  0.85621930  0.53421131     0.37650
C646        C  0.34440805  0.94876378  0.65620391     0.37640
C647        C  0.36355788  0.98720537  0.57808104     0.36060
C648        C  0.41033906  0.80967016  0.60014096     0.36060
N649        N  0.34041870  0.01642249  0.56898700    -0.38760
N650        N  0.41402897  0.77158416  0.60035632    -0.38760
N651        N  0.32418242  0.96821438  0.68121127    -0.38200
N652        N  0.46146742  0.83330349  0.50816283    -0.38210
C653        C  0.07830189  0.56762641  0.93545777    -0.04870
C654        C  0.12657431  0.56991193  0.93583597    -0.01990
C655        C  0.15011843  0.60081846  0.91058053     0.03000
C656        C  0.12703650  0.62812772  0.88216346    -0.04870
C657        C  0.07997754  0.62442523  0.87971537    -0.01980
C658        C  0.05690595  0.59193807  0.90319326     0.03000
C659        C  0.15391135  0.53663458  0.95617998     0.37650
C660        C  0.05501127  0.65101032  0.84979598     0.37640
C661        C  0.01607971  0.57671179  0.88459588     0.36060
C662        C  0.19871972  0.60435291  0.91399441     0.36060
N663        N  0.98639076  0.56749152  0.86334314    -0.38760
N664        N  0.23739044  0.60699511  0.91686654    -0.38760
N665        N  0.03479639  0.67187367  0.82607991    -0.38200
N666        N  0.17725363  0.51021646  0.97073676    -0.38210
C667        C  0.06816305  0.92797629  0.57075273    -0.04870
C668        C  0.08011606  0.94505259  0.61114227    -0.01990
C669        C  0.10703655  0.92027374  0.63905825     0.03000
C670        C  0.11929809  0.87660586  0.62987225    -0.04870
C671        C  0.10328227  0.85697485  0.59346511    -0.01980
C672        C  0.07798343  0.88179702  0.56431622     0.03000
C673        C  0.06440609  0.98711193  0.62703670     0.37650
C674        C  0.11483879  0.81099935  0.58498096     0.37640
C675        C  0.06462866  0.85749175  0.52781695     0.36060
C676        C  0.12085942  0.93937830  0.67862329     0.36060
N677        N  0.05739692  0.83409543  0.50026029    -0.38760
N678        N  0.13186331  0.95455160  0.71006131    -0.38760
N679        N  0.12401582  0.77452240  0.57810705    -0.38200
N680        N  0.05380885  0.01990432  0.64292458    -0.38210
C681        C  0.37915736  0.62832904  0.62613964    -0.04870
C682        C  0.40898348  0.59548566  0.63974855    -0.01990
C683        C  0.42946248  0.56601137  0.61092248     0.03000
C684        C  0.42310943  0.57086689  0.56659423    -0.04870
C685        C  0.39033209  0.60323545  0.55411289    -0.01980
C686        C  0.37028500  0.63246431  0.58343999     0.03000
C687        C  0.41702442  0.59082253  0.68432512     0.37650
C688        C  0.36918225  0.60190569  0.51366835     0.37640
C689        C  0.33859035  0.66609139  0.56978762     0.36060
C690        C  0.44980602  0.52707047  0.62910343     0.36060
N691        N  0.31341569  0.69287998  0.55886306    -0.38760
N692        N  0.46288436  0.49542967  0.64539531    -0.38760
N693        N  0.34800826  0.60120981  0.48353170    -0.38200
N694        N  0.42329537  0.58723130  0.71980175    -0.38210
C695        C  0.07489184  0.57142908  0.56595432    -0.04870
C696        C  0.11904414  0.55941228  0.57992310    -0.01990
C697        C  0.14322028  0.58566903  0.60858292     0.03000
C698        C  0.12480341  0.62528446  0.62483407    -0.04870
C699        C  0.08214832  0.63885148  0.60998796    -0.01980
C700        C  0.05768120  0.61258438  0.58123636     0.03000
C701        C  0.14113424  0.51897393  0.56727235     0.37650
C702        C  0.06273377  0.68062257  0.62365266     0.37640
C703        C  0.01514628  0.63040612  0.56749265     0.36060
C704        C  0.18774683  0.57070343  0.62119049     0.36060
N705        N  0.98238176  0.64834858  0.55799786    -0.38760
N706        N  0.22296204  0.55809735  0.63088383    -0.38760
N707        N  0.04685104  0.71383892  0.63408268    -0.38200
N708        N  0.16197437  0.48765442  0.55988804    -0.38210
N709        N  0.69560931  0.33359400  0.20400530    -0.05650
N710        N  0.68563876  0.36459513  0.17650425    -0.57770
N711        N  0.66464140  0.30308251  0.29984669    -0.05330
N712        N  0.63455181  0.31179899  0.32928961    -0.59900
N713        N  0.69614546  0.33342950  0.29932602    -0.04930
N714        N  0.68856276  0.36320643  0.32849400    -0.57750
N715        N  0.66447335  0.30279458  0.20441431    -0.04610
N716        N  0.63286081  0.31207766  0.17706546    -0.60250
C717        C  0.64666610  0.35050350  0.15970818     0.96520
C718        C  0.65047180  0.34897861  0.34713822     0.96300
N719        N  0.69702379  0.16830122  0.30025526    -0.05840
N720        N  0.68985692  0.13926827  0.33036952    -0.58350
N721        N  0.66507667  0.19831767  0.20456563    -0.03960
N722        N  0.63467669  0.18915256  0.17599917    -0.59600
N723        N  0.69700258  0.16821476  0.20425055    -0.05870
N724        N  0.68866035  0.13816163  0.17564676    -0.58620
N725        N  0.66581527  0.19913210  0.30095156    -0.03600
N726        N  0.63692405  0.19176302  0.33171380    -0.59690
Mn727      Mn  0.66366408  0.25073720  0.25241103     1.18440
C728        C  0.65237103  0.15434864  0.35006854     0.98610
C729        C  0.64973167  0.15142314  0.15770559     0.99270
N730        N  0.80093312  0.33416596  0.29940524    -0.05890
N731        N  0.80879185  0.36449787  0.32791007    -0.62200
N732        N  0.83501404  0.30421005  0.20545338    -0.04690
N733        N  0.86725581  0.31481689  0.17869587    -0.62870
N734        N  0.80259141  0.33386085  0.20442998    -0.05390
N735        N  0.81197368  0.36489518  0.17685687    -0.62460
N736        N  0.83176401  0.30302511  0.30071174    -0.04290
N737        N  0.86086091  0.31135466  0.33044511    -0.63150
Mn738      Mn  0.74877533  0.33479561  0.25147351     1.10660
C739        C  0.84625371  0.34986083  0.34732410     0.99830
C740        C  0.85240089  0.35274993  0.16091917     0.99900
N741        N  0.80442276  0.16882710  0.20395978    -0.05400
N742        N  0.81374442  0.13926298  0.17478405    -0.60780
N743        N  0.83334616  0.19901658  0.30075094    -0.04720
N744        N  0.86245885  0.19035674  0.33067293    -0.57510
N745        N  0.80156235  0.16905226  0.30047613    -0.06030
N746        N  0.80794458  0.14000940  0.33053563    -0.60340
N747        N  0.83579698  0.19941167  0.20460901    -0.05020
N748        N  0.86702480  0.19127823  0.17594663    -0.57530
Mn749      Mn  0.75005158  0.16733007  0.25191404     1.20190
Mn750      Mn  0.83531571  0.25131273  0.25287826     1.10090
Cl751      Cl  0.74947104  0.25103563  0.25164587    -0.85500
C752        C  0.85250411  0.15400591  0.15726885     0.96830
C753        C  0.84608842  0.15340808  0.34931731     0.96630
C754        C  0.94962989  0.45889789  0.46776624    -0.02020
C755        C  0.95130146  0.04175704  0.46687276    -0.02020
C756        C  0.54984850  0.45896842  0.46884164    -0.02020
C757        C  0.54990424  0.04030068  0.46814475    -0.02020
C758        C  0.52397308  0.99978268  0.45200102     0.01030
C759        C  0.97675052  0.99988942  0.45079307     0.01030
C760        C  0.94913394  0.45870928  0.03305225    -0.02020
C761        C  0.54606641  0.45814901  0.03589160    -0.02020
C762        C  0.52138492  0.43442779  0.00096466     0.01030
C763        C  0.97653934  0.43467542  0.00024033     0.01030
C764        C  0.54755243  0.04168310  0.03463606    -0.02020
C765        C  0.97431625  0.99997020  0.04972097     0.01030
C766        C  0.52084676  0.00026610  0.05078972     0.01030
C767        C  0.57735059  0.47770800  0.00356428     0.01030
C768        C  0.57726087  0.02103102  0.00260009     0.01030
C769        C  0.97727510  0.06558985  0.00056801     0.01030
C770        C  0.52233891  0.06586332  0.00039021     0.01030
C771        C  0.94926928  0.04153513  0.03351210    -0.02020
C772        C  0.92051752  0.47909374  0.00069116     0.01030
C773        C  0.92043233  0.02253046  0.99991448     0.01030
C774        C  0.92083287  0.42846479  0.43838312    -0.04870
C775        C  0.94142810  0.39371032  0.41508235    -0.01990
C776        C  0.91783473  0.36998644  0.38438175     0.03000
C777        C  0.87109656  0.37547148  0.37970250    -0.04870
C778        C  0.84850330  0.40617777  0.40551942    -0.01980
C779        C  0.87259658  0.43318491  0.43360917     0.03000
C780        C  0.98549340  0.37703368  0.42422776     0.37650
C781        C  0.79991022  0.41116940  0.40275755     0.37640
C782        C  0.84620857  0.46761493  0.45405537     0.36060
C783        C  0.94290582  0.34027530  0.35693401     0.36060
N784        N  0.82401721  0.49469908  0.46941009    -0.38760
N785        N  0.96326261  0.31682416  0.33532289    -0.38760
N786        N  0.76135614  0.41589616  0.40066683    -0.38200
N787        N  0.01877064  0.35789129  0.42845729    -0.38210
C788        C  0.92684155  0.07190966  0.43389834    -0.04870
C789        C  0.93118774  0.11925500  0.43286341    -0.01990
C790        C  0.90286144  0.14566674  0.40745127     0.03000
C791        C  0.87141737  0.12611951  0.38049179    -0.04870
C792        C  0.86860302  0.07961475  0.37944632    -0.01980
C793        C  0.89843801  0.05328394  0.40290966     0.03000
C794        C  0.96746814  0.14206403  0.45357455     0.37650
C795        C  0.83809416  0.05770752  0.35081796     0.37640
C796        C  0.90843351  0.01102793  0.38420949     0.36060
C797        C  0.90550391  0.19353028  0.41011360     0.36060
N798        N  0.91440270  0.98016529  0.36360678    -0.38760
N799        N  0.90767095  0.23161194  0.41251415    -0.38760
N800        N  0.81429976  0.03978754  0.32804042    -0.38200
N801        N  0.99667240  0.16168515  0.46823650    -0.38210
C802        C  0.62539373  0.37577433  0.37778305    -0.04870
C803        C  0.58997140  0.40246939  0.36438790    -0.01990
C804        C  0.56791551  0.43128116  0.39259722     0.03000
C805        C  0.57916143  0.43215649  0.43621334    -0.04870
C806        C  0.61820834  0.40669942  0.44782348    -0.01980
C807        C  0.64005339  0.37837133  0.41896286     0.03000
C808        C  0.57613672  0.40009442  0.32086884     0.37650
C809        C  0.63987975  0.41000955  0.48786949     0.37640
C810        C  0.67831125  0.35146551  0.43158982     0.36060
C811        C  0.53317019  0.45821962  0.37455466     0.36060
N812        N  0.70877617  0.33016720  0.44161850    -0.38760
N813        N  0.50671398  0.47811666  0.35621778    -0.38760
N814        N  0.66060647  0.40964850  0.51824749    -0.38200
N815        N  0.56508978  0.39801698  0.28635279    -0.38210
C816        C  0.92178697  0.42911421  0.06429977    -0.05010
C817        C  0.92729677  0.38207555  0.06728769    -0.01990
C818        C  0.90568945  0.35757397  0.09935617     0.03000
C819        C  0.87766464  0.37884796  0.12884904    -0.04870
C820        C  0.87029425  0.42470870  0.12488263    -0.01980
C821        C  0.88805536  0.44807986  0.09049997     0.03000
C822        C  0.94774546  0.35622005  0.03420250     0.37650
C823        C  0.84441726  0.44876560  0.15621014     0.37640
C824        C  0.86356168  0.48720727  0.07808560     0.36060
C825        C  0.91033927  0.30967108  0.10014012     0.36060
N826        N  0.84042175  0.51642402  0.06899214    -0.38760
N827        N  0.91402861  0.27158504  0.10035499    -0.38760
N828        N  0.82419391  0.46821613  0.18121913    -0.38200
N829        N  0.96144224  0.33330475  0.00814896    -0.38210
C830        C  0.57830124  0.06762821  0.43545959    -0.04870
C831        C  0.62657364  0.06991830  0.43584076    -0.01990
C832        C  0.65011697  0.10082353  0.41058303     0.03000
C833        C  0.62703478  0.12812822  0.38216239    -0.04870
C834        C  0.57997643  0.12442211  0.37971212    -0.01980
C835        C  0.55690550  0.09193604  0.40319215     0.03000
C836        C  0.65391285  0.03664824  0.45619281     0.37650
C837        C  0.55501068  0.15100239  0.34978853     0.37640
C838        C  0.51607899  0.07670837  0.38459632     0.36060
C839        C  0.69871788  0.10436166  0.41399821     0.36060
N840        N  0.48638952  0.06748700  0.36334467    -0.38760
N841        N  0.73738830  0.10700675  0.41687126    -0.38760
N842        N  0.53479636  0.17186193  0.32606909    -0.38200
N843        N  0.67725713  0.01023616  0.47075652    -0.38210
C844        C  0.56816443  0.42797769  0.07075332    -0.04870
C845        C  0.58012575  0.44505707  0.11113926    -0.01990
C846        C  0.60704922  0.42027915  0.13905339     0.03000
C847        C  0.61930311  0.37660828  0.12987092    -0.04870
C848        C  0.60327818  0.35697469  0.09346836    -0.01980
C849        C  0.57797722  0.38179632  0.06432061     0.03000
C850        C  0.56441661  0.48711647  0.12703412     0.37650
C851        C  0.61482837  0.31099720  0.08498674     0.37640
C852        C  0.56461301  0.35748854  0.02782582     0.36060
C853        C  0.62088201  0.43938791  0.17861351     0.36060
N854        N  0.55737232  0.33409071  0.00027243    -0.38760
N855        N  0.63189386  0.45456476  0.21004753    -0.38760
N856        N  0.62400062  0.27451875  0.07811459    -0.38200
N857        N  0.55381938  0.51990833  0.14292299    -0.38210
C858        C  0.87915622  0.12832883  0.12613952    -0.04870
C859        C  0.90898079  0.09548416  0.13974862    -0.01990
C860        C  0.92945880  0.06600917  0.11092264     0.03000
C861        C  0.92310709  0.07086568  0.06659438    -0.04870
C862        C  0.89033073  0.10323507  0.05411284    -0.01980
C863        C  0.87028434  0.13246450  0.08343981     0.03000
C864        C  0.91702097  0.09082039  0.18432524     0.37650
C865        C  0.86918076  0.10190545  0.01366837     0.37640
C866        C  0.83859084  0.16609254  0.06978723     0.36060
C867        C  0.94979885  0.02706645  0.12910346     0.36060
N868        N  0.81341711  0.19288188  0.05886247    -0.38760
N869        N  0.96287428  0.99542441  0.14539523    -0.38760
N870        N  0.84800657  0.10120968  0.98353184    -0.38200
N871        N  0.92329133  0.08722872  0.21980193    -0.38210
C872        C  0.57488852  0.07142815  0.06595695    -0.04870
C873        C  0.61903919  0.05940982  0.07992836    -0.01990
C874        C  0.64321607  0.08566736  0.10858697     0.03000
C875        C  0.62480073  0.12528457  0.12483570    -0.04870
C876        C  0.58214611  0.13885199  0.10998870    -0.01980
C877        C  0.55767879  0.11258454  0.08123738     0.03000
C878        C  0.64112663  0.01896881  0.06728199     0.37650
C879        C  0.56273211  0.18062364  0.12365246     0.37640
C880        C  0.51514417  0.13040646  0.06749302     0.36060
C881        C  0.68774172  0.07070050  0.12119598     0.36060
N882        N  0.48237974  0.14834871  0.05799767    -0.38760
N883        N  0.72295618  0.05809338  0.13089045    -0.38760
N884        N  0.54684966  0.21384034  0.13408185    -0.38200
N885        N  0.66196526  0.98764715  0.05990261    -0.38210
N886        N  0.69560931  0.33359400  0.70400530    -0.05650
N887        N  0.68563876  0.36459513  0.67650425    -0.57770
N888        N  0.66464140  0.30308251  0.79984669    -0.05330
N889        N  0.63455181  0.31179899  0.82928960    -0.59900
N890        N  0.69614546  0.33342950  0.79932602    -0.04930
N891        N  0.68856276  0.36320643  0.82849400    -0.57750
N892        N  0.66447335  0.30279458  0.70441430    -0.04610
N893        N  0.63286081  0.31207766  0.67706546    -0.60250
C894        C  0.64666610  0.35050350  0.65970817     0.96520
C895        C  0.65047180  0.34897862  0.84713822     0.96300
N896        N  0.69702380  0.16830122  0.80025526    -0.05840
N897        N  0.68985692  0.13926827  0.83036952    -0.58350
N898        N  0.66507668  0.19831767  0.70456563    -0.03960
N899        N  0.63467669  0.18915256  0.67599917    -0.59600
N900        N  0.69700258  0.16821476  0.70425055    -0.05870
N901        N  0.68866035  0.13816163  0.67564676    -0.58620
N902        N  0.66581527  0.19913210  0.80095156    -0.03600
N903        N  0.63692405  0.19176302  0.83171380    -0.59690
Mn904      Mn  0.66366408  0.25073720  0.75241103     1.18440
C905        C  0.65237103  0.15434865  0.85006854     0.98610
C906        C  0.64973167  0.15142314  0.65770559     0.99270
N907        N  0.80093312  0.33416596  0.79940524    -0.05890
N908        N  0.80879185  0.36449787  0.82791007    -0.62200
N909        N  0.83501404  0.30421005  0.70545338    -0.04690
N910        N  0.86725581  0.31481689  0.67869586    -0.62870
N911        N  0.80259141  0.33386086  0.70442998    -0.05390
N912        N  0.81197368  0.36489518  0.67685687    -0.62460
N913        N  0.83176401  0.30302511  0.80071173    -0.04290
N914        N  0.86086091  0.31135466  0.83044511    -0.63150
Mn915      Mn  0.74877533  0.33479561  0.75147351     1.10660
C916        C  0.84625371  0.34986083  0.84732409     0.99830
C917        C  0.85240089  0.35274993  0.66091917     0.99900
N918        N  0.80442276  0.16882710  0.70395978    -0.05400
N919        N  0.81374442  0.13926298  0.67478405    -0.60780
N920        N  0.83334616  0.19901659  0.80075094    -0.04720
N921        N  0.86245886  0.19035674  0.83067293    -0.57510
N922        N  0.80156235  0.16905227  0.80047613    -0.06030
N923        N  0.80794458  0.14000940  0.83053563    -0.60340
N924        N  0.83579698  0.19941167  0.70460901    -0.05020
N925        N  0.86702480  0.19127823  0.67594664    -0.57530
Mn926      Mn  0.75005158  0.16733007  0.75191404     1.20190
Mn927      Mn  0.83531572  0.25131273  0.75287826     1.10090
Cl928      Cl  0.74947105  0.25103563  0.75164587    -0.85500
C929        C  0.85250411  0.15400592  0.65726885     0.96830
C930        C  0.84608843  0.15340809  0.84931731     0.96630
C931        C  0.94962989  0.45889789  0.96776624    -0.02020
C932        C  0.95130147  0.04175704  0.96687276    -0.02020
C933        C  0.54984850  0.45896842  0.96884164    -0.02020
C934        C  0.54990424  0.04030068  0.96814475    -0.02020
C935        C  0.52397308  0.99978268  0.95200102     0.01030
C936        C  0.97675052  0.99988942  0.95079307     0.01030
C937        C  0.94913394  0.45870928  0.53305224    -0.02020
C938        C  0.54606641  0.45814901  0.53589160    -0.02020
C939        C  0.52138492  0.43442779  0.50096466     0.01030
C940        C  0.97653934  0.43467542  0.50024032     0.01030
C941        C  0.54755242  0.04168310  0.53463606    -0.02020
C942        C  0.97431625  0.99997021  0.54972097     0.01030
C943        C  0.52084676  0.00026610  0.55078972     0.01030
C944        C  0.57735059  0.47770800  0.50356428     0.01030
C945        C  0.57726086  0.02103102  0.50260009     0.01030
C946        C  0.97727510  0.06558985  0.50056801     0.01030
C947        C  0.52233891  0.06586332  0.50039021     0.01030
C948        C  0.94926928  0.04153514  0.53351210    -0.02020
C949        C  0.92051752  0.47909374  0.50069115     0.01030
C950        C  0.92043233  0.02253046  0.49991448     0.01030
C951        C  0.92083287  0.42846479  0.93838312    -0.04870
C952        C  0.94142810  0.39371032  0.91508235    -0.01990
C953        C  0.91783472  0.36998644  0.88438175     0.03000
C954        C  0.87109656  0.37547148  0.87970250    -0.04870
C955        C  0.84850330  0.40617778  0.90551942    -0.01980
C956        C  0.87259658  0.43318491  0.93360918     0.03000
C957        C  0.98549340  0.37703368  0.92422776     0.37650
C958        C  0.79991022  0.41116941  0.90275754     0.37640
C959        C  0.84620857  0.46761493  0.95405538     0.36060
C960        C  0.94290582  0.34027530  0.85693401     0.36060
N961        N  0.82401721  0.49469908  0.96941010    -0.38760
N962        N  0.96326260  0.31682416  0.83532290    -0.38760
N963        N  0.76135614  0.41589617  0.90066682    -0.38200
N964        N  0.01877064  0.35789129  0.92845730    -0.38210
C965        C  0.92684155  0.07190966  0.93389834    -0.04870
C966        C  0.93118775  0.11925500  0.93286340    -0.01990
C967        C  0.90286145  0.14566675  0.90745126     0.03000
C968        C  0.87141737  0.12611951  0.88049179    -0.04870
C969        C  0.86860301  0.07961475  0.87944632    -0.01980
C970        C  0.89843801  0.05328394  0.90290967     0.03000
C971        C  0.96746816  0.14206403  0.95357454     0.37650
C972        C  0.83809414  0.05770752  0.85081798     0.37640
C973        C  0.90843350  0.01102793  0.88420950     0.36060
C974        C  0.90550394  0.19353028  0.91011359     0.36060
N975        N  0.91440268  0.98016530  0.86360678    -0.38760
N976        N  0.90767099  0.23161194  0.91251413    -0.38760
N977        N  0.81429973  0.03978754  0.82804045    -0.38200
N978        N  0.99667242  0.16168514  0.96823648    -0.38210
C979        C  0.62539373  0.37577433  0.87778305    -0.04870
C980        C  0.58997140  0.40246938  0.86438790    -0.01990
C981        C  0.56791550  0.43128116  0.89259722     0.03000
C982        C  0.57916143  0.43215649  0.93621334    -0.04870
C983        C  0.61820835  0.40669942  0.94782347    -0.01980
C984        C  0.64005339  0.37837134  0.91896285     0.03000
C985        C  0.57613671  0.40009440  0.82086884     0.37650
C986        C  0.63987976  0.41000956  0.98786948     0.37640
C987        C  0.67831126  0.35146552  0.93158981     0.36060
C988        C  0.53317018  0.45821961  0.87455466     0.36060
N989        N  0.70877618  0.33016721  0.94161850    -0.38760
N990        N  0.50671397  0.47811665  0.85621778    -0.38760
N991        N  0.66060648  0.40964851  0.01824749    -0.38200
N992        N  0.56508977  0.39801697  0.78635279    -0.38210
C993        C  0.92178697  0.42911421  0.56429977    -0.05010
C994        C  0.92729676  0.38207555  0.56728768    -0.01990
C995        C  0.90568945  0.35757397  0.59935617     0.03000
C996        C  0.87766464  0.37884796  0.62884904    -0.04870
C997        C  0.87029425  0.42470870  0.62488263    -0.01980
C998        C  0.88805536  0.44807986  0.59049997     0.03000
C999        C  0.94774544  0.35622005  0.53420249     0.37650
C1000       C  0.84441726  0.44876560  0.65621014     0.37640
C1001       C  0.86356168  0.48720727  0.57808560     0.36060
C1002       C  0.91033927  0.30967108  0.60014012     0.36060
N1003       N  0.84042175  0.51642402  0.56899214    -0.38760
N1004       N  0.91402861  0.27158504  0.60035499    -0.38760
N1005       N  0.82419392  0.46821613  0.68121913    -0.38200
N1006       N  0.96144221  0.33330475  0.50814895    -0.38210
C1007       C  0.57830125  0.06762821  0.93545959    -0.04870
C1008       C  0.62657365  0.06991832  0.93584077    -0.01990
C1009       C  0.65011697  0.10082354  0.91058303     0.03000
C1010       C  0.62703478  0.12812822  0.88216239    -0.04870
C1011       C  0.57997643  0.12442209  0.87971211    -0.01980
C1012       C  0.55690551  0.09193603  0.90319214     0.03000
C1013       C  0.65391286  0.03664827  0.95619284     0.37650
C1014       C  0.55501069  0.15100235  0.84978850     0.37640
C1015       C  0.51607900  0.07670835  0.88459632     0.36060
C1016       C  0.69871788  0.10436169  0.91399823     0.36060
N1017       N  0.48638952  0.06748698  0.86334467    -0.38760
N1018       N  0.73738829  0.10700680  0.91687129    -0.38760
N1019       N  0.53479637  0.17186188  0.82606904    -0.38200
N1020       N  0.67725715  0.01023621  0.97075656    -0.38210
C1021       C  0.56816443  0.42797768  0.57075332    -0.04870
C1022       C  0.58012575  0.44505707  0.61113926    -0.01990
C1023       C  0.60704922  0.42027915  0.63905338     0.03000
C1024       C  0.61930311  0.37660828  0.62987092    -0.04870
C1025       C  0.60327818  0.35697469  0.59346836    -0.01980
C1026       C  0.57797722  0.38179632  0.56432061     0.03000
C1027       C  0.56441661  0.48711647  0.62703412     0.37650
C1028       C  0.61482836  0.31099719  0.58498674     0.37640
C1029       C  0.56461299  0.35748853  0.52782582     0.36060
C1030       C  0.62088202  0.43938791  0.67861350     0.36060
N1031       N  0.55737230  0.33409071  0.50027244    -0.38760
N1032       N  0.63189387  0.45456477  0.71004752    -0.38760
N1033       N  0.62400061  0.27451874  0.57811459    -0.38200
N1034       N  0.55381938  0.51990832  0.64292299    -0.38210
C1035       C  0.87915622  0.12832883  0.62613952    -0.04870
C1036       C  0.90898080  0.09548417  0.63974861    -0.01990
C1037       C  0.92945881  0.06600918  0.61092264     0.03000
C1038       C  0.92310709  0.07086568  0.56659438    -0.04870
C1039       C  0.89033072  0.10323507  0.55411284    -0.01980
C1040       C  0.87028433  0.13246449  0.58343981     0.03000
C1041       C  0.91702100  0.09082042  0.68432524     0.37650
C1042       C  0.86918075  0.10190544  0.51366837     0.37640
C1043       C  0.83859081  0.16609252  0.56978724     0.36060
C1044       C  0.94979886  0.02706646  0.62910346     0.36060
N1045       N  0.81341706  0.19288185  0.55886248    -0.38760
N1046       N  0.96287430  0.99542443  0.64539523    -0.38760
N1047       N  0.84800655  0.10120966  0.48353185    -0.38200
N1048       N  0.92329137  0.08722876  0.71980192    -0.38210
C1049       C  0.57488852  0.07142815  0.56595695    -0.04870
C1050       C  0.61903919  0.05940983  0.57992835    -0.01990
C1051       C  0.64321608  0.08566737  0.60858696     0.03000
C1052       C  0.62480074  0.12528458  0.62483570    -0.04870
C1053       C  0.58214611  0.13885199  0.60998870    -0.01980
C1054       C  0.55767879  0.11258454  0.58123738     0.03000
C1055       C  0.64112664  0.01896882  0.56728197     0.37650
C1056       C  0.56273211  0.18062364  0.62365246     0.37640
C1057       C  0.51514417  0.13040646  0.56749303     0.36060
C1058       C  0.68774173  0.07070051  0.62119596     0.36060
N1059       N  0.48237973  0.14834871  0.55799768    -0.38760
N1060       N  0.72295619  0.05809340  0.63089043    -0.38760
N1061       N  0.54684965  0.21384033  0.63408186    -0.38200
N1062       N  0.66196528  0.98764716  0.55990259    -0.38210
N1063       N  0.69560616  0.83359269  0.20400520    -0.05650
N1064       N  0.68563413  0.86459416  0.17650494    -0.57770
N1065       N  0.66463952  0.80308142  0.29984638    -0.05330
N1066       N  0.63454930  0.81179834  0.32928864    -0.59900
N1067       N  0.69614325  0.83342872  0.29932551    -0.04930
N1068       N  0.68855980  0.86320630  0.32849270    -0.57750
N1069       N  0.66447100  0.80279250  0.20441425    -0.04610
N1070       N  0.63285766  0.81207514  0.17706605    -0.60250
C1071       C  0.64666161  0.85050166  0.15970929     0.96520
C1072       C  0.65046860  0.84897864  0.34713656     0.96300
N1073       N  0.69702478  0.66830041  0.30025575    -0.05840
N1074       N  0.68985843  0.63926781  0.33037040    -0.58350
N1075       N  0.66507706  0.69831579  0.20456618    -0.03960
N1076       N  0.63467779  0.68915101  0.17599906    -0.59600
N1077       N  0.69700319  0.66821311  0.20425111    -0.05870
N1078       N  0.68866176  0.63816036  0.17564674    -0.58620
N1079       N  0.66581616  0.69913117  0.30095214    -0.03600
N1080       N  0.63692557  0.69176245  0.33171490    -0.59690
Mn1081     Mn  0.66366338  0.75073553  0.25241124     1.18440
C1082       C  0.65237283  0.65434833  0.35006981     0.98610
C1083       C  0.64973338  0.65142204  0.15770514     0.99270
N1084       N  0.80093105  0.83416619  0.29940434    -0.05890
N1085       N  0.80878961  0.86449835  0.32790901    -0.62200
N1086       N  0.83501146  0.80420974  0.20545259    -0.04690
N1087       N  0.86725253  0.81481639  0.17869434    -0.62870
N1088       N  0.80258831  0.83385998  0.20442896    -0.05390
N1089       N  0.81196949  0.86489363  0.17685488    -0.62460
N1090       N  0.83176225  0.80302563  0.30071093    -0.04290
N1091       N  0.86085914  0.81135563  0.33044417    -0.63150
Mn1092     Mn  0.74877281  0.83479492  0.25147289     1.10660
C1093       C  0.84625171  0.84986178  0.34732298     0.99830
C1094       C  0.85239660  0.85274861  0.16091685     0.99900
N1095       N  0.80442323  0.66882646  0.20395990    -0.05400
N1096       N  0.81374543  0.63926223  0.17478439    -0.60780
N1097       N  0.83334650  0.69901686  0.30075080    -0.04720
N1098       N  0.86245987  0.69035697  0.33067224    -0.57510
N1099       N  0.80156311  0.66905210  0.30047614    -0.06030
N1100       N  0.80794622  0.64000892  0.33053520    -0.60340
N1101       N  0.83579691  0.69941156  0.20460891    -0.05020
N1102       N  0.86702489  0.69127840  0.17594662    -0.57530
Mn1103     Mn  0.75005223  0.66732922  0.25191434     1.20190
Mn1104     Mn  0.83531472  0.75131293  0.25287785     1.10090
Cl1105     Cl  0.74947017  0.75103489  0.25164578    -0.85500
C1106       C  0.85250490  0.65400566  0.15726911     0.96830
C1107       C  0.84609021  0.65340784  0.34931641     0.96630
C1108       C  0.94962871  0.95889781  0.46776567    -0.02020
C1109       C  0.95130283  0.54175712  0.46687251    -0.02020
C1110       C  0.54984754  0.95896885  0.46884137    -0.02020
C1111       C  0.54990522  0.54030001  0.46814353    -0.02020
C1112       C  0.52397395  0.49978201  0.45200078     0.01030
C1113       C  0.97675156  0.49988912  0.45079313     0.01030
C1114       C  0.94913272  0.95870842  0.03305186    -0.02020
C1115       C  0.54606507  0.95814828  0.03589139    -0.02020
C1116       C  0.52138380  0.93442742  0.00096402     0.01030
C1117       C  0.97653815  0.93467511  0.00023956     0.01030
C1118       C  0.54755457  0.54168366  0.03463471    -0.02020
C1119       C  0.97431797  0.49997116  0.04972089     0.01030
C1120       C  0.52084856  0.50026705  0.05078954     0.01030
C1121       C  0.57734932  0.97770795  0.00356459     0.01030
C1122       C  0.57726232  0.52103096  0.00259871     0.01030
C1123       C  0.97727682  0.56559017  0.00056732     0.01030
C1124       C  0.52234062  0.56586346  0.00038895     0.01030
C1125       C  0.94927114  0.54153599  0.03351186    -0.02020
C1126       C  0.92051644  0.97909314  0.00069074     0.01030
C1127       C  0.92043372  0.52253107  0.99991458     0.01030
C1128       C  0.92083106  0.92846492  0.43838271    -0.04870
C1129       C  0.94142576  0.89371008  0.41508223    -0.01990
C1130       C  0.91783254  0.86998695  0.38438105     0.03000
C1131       C  0.87109450  0.87547256  0.37970138    -0.04870
C1132       C  0.84850140  0.90617902  0.40551828    -0.01980
C1133       C  0.87259472  0.93318526  0.43360887     0.03000
C1134       C  0.98549017  0.87703218  0.42422869     0.37650
C1135       C  0.79990860  0.91117228  0.40275507     0.37640
C1136       C  0.84620670  0.96761466  0.45405598     0.36060
C1137       C  0.94290380  0.84027618  0.35693308     0.36060
N1138       N  0.82401522  0.99469834  0.46941131    -0.38760
N1139       N  0.96326072  0.81682537  0.33532176    -0.38760
N1140       N  0.76135480  0.91590063  0.40066317    -0.38200
N1141       N  0.01876702  0.85788937  0.42845868    -0.38210
C1142       C  0.92684317  0.57190966  0.43389786    -0.04870
C1143       C  0.93118879  0.61925511  0.43286325    -0.01990
C1144       C  0.90286277  0.64566665  0.40745070     0.03000
C1145       C  0.87141978  0.62611917  0.38049035    -0.04870
C1146       C  0.86860677  0.57961433  0.37944381    -0.01980
C1147       C  0.89844100  0.55328369  0.40290822     0.03000
C1148       C  0.96746847  0.64206459  0.45357506     0.37650
C1149       C  0.83810031  0.55770709  0.35081326     0.37640
C1150       C  0.90843748  0.51102747  0.38420878     0.36060
C1151       C  0.90550466  0.69353022  0.41011323     0.36060
N1152       N  0.91440822  0.48016445  0.36360694    -0.38760
N1153       N  0.90767135  0.73161189  0.41251388    -0.38760
N1154       N  0.81430784  0.53978718  0.32803393    -0.38200
N1155       N  0.99667221  0.66168613  0.46823739    -0.38210
C1156       C  0.62539081  0.87577420  0.37778171    -0.04870
C1157       C  0.58996563  0.90246627  0.36438781    -0.01990
C1158       C  0.56791087  0.93127892  0.39259714     0.03000
C1159       C  0.57916035  0.93215755  0.43621231    -0.04870
C1160       C  0.61821069  0.90670451  0.44782044    -0.01980
C1161       C  0.64005431  0.87837519  0.41896003     0.03000
C1162       C  0.57612696  0.90008753  0.32087009     0.37650
C1163       C  0.63988588  0.91001832  0.48786432     0.37640
C1164       C  0.67831404  0.85147132  0.43158595     0.36060
C1165       C  0.53316397  0.95821588  0.37455540     0.36060
N1166       N  0.70878024  0.83017437  0.44161385    -0.38760
N1167       N  0.50670663  0.97811160  0.35621871    -0.38760
N1168       N  0.66061511  0.90965823  0.51824079    -0.38200
N1169       N  0.56507674  0.89800712  0.28635515    -0.38210
C1170       C  0.92178574  0.92911299  0.06429912    -0.05010
C1171       C  0.92729930  0.88207486  0.06729004    -0.01990
C1172       C  0.90568840  0.85757299  0.09935628     0.03000
C1173       C  0.87766003  0.87884659  0.12884648    -0.04870
C1174       C  0.87028798  0.92470688  0.12487844    -0.01980
C1175       C  0.88805076  0.94807779  0.09049638     0.03000
C1176       C  0.94776024  0.85621930  0.03421134     0.37650
C1177       C  0.84440802  0.94876377  0.15620389     0.37640
C1178       C  0.86355787  0.98720537  0.07808102     0.36060
C1179       C  0.91033907  0.80967016  0.10014098     0.36060
N1180       N  0.84041870  0.01642249  0.06898698    -0.38760
N1181       N  0.91402900  0.77158417  0.10035634    -0.38760
N1182       N  0.82418237  0.96821438  0.18121124    -0.38200
N1183       N  0.96146748  0.83330349  0.00816287    -0.38210
C1184       C  0.57830189  0.56762641  0.43545777    -0.04870
C1185       C  0.62657431  0.56991192  0.43583597    -0.01990
C1186       C  0.65011843  0.60081845  0.41058053     0.03000
C1187       C  0.62703650  0.62812772  0.38216346    -0.04870
C1188       C  0.57997755  0.62442524  0.37971538    -0.01980
C1189       C  0.55690595  0.59193807  0.40319326     0.03000
C1190       C  0.65391134  0.53663457  0.45617997     0.37650
C1191       C  0.55501127  0.65101034  0.34979600     0.37640
C1192       C  0.51607971  0.57671180  0.38459588     0.36060
C1193       C  0.69871973  0.60435289  0.41399440     0.36060
N1194       N  0.48639076  0.56749153  0.36334314    -0.38760
N1195       N  0.73739045  0.60699509  0.41686653    -0.38760
N1196       N  0.53479639  0.67187370  0.32607994    -0.38200
N1197       N  0.67725362  0.51021644  0.47073674    -0.38210
C1198       C  0.56816305  0.92797629  0.07075273    -0.04870
C1199       C  0.58011604  0.94505259  0.11114228    -0.01990
C1200       C  0.60703654  0.92027374  0.13905826     0.03000
C1201       C  0.61929808  0.87660585  0.12987226    -0.04870
C1202       C  0.60328228  0.85697485  0.09346510    -0.01980
C1203       C  0.57798345  0.88179703  0.06431621     0.03000
C1204       C  0.56440607  0.98711192  0.12703670     0.37650
C1205       C  0.61483880  0.81099935  0.08498096     0.37640
C1206       C  0.56462870  0.85749175  0.02781694     0.36060
C1207       C  0.62085939  0.93937829  0.17862330     0.36060
N1208       N  0.55739697  0.83409544  0.00026027    -0.38760
N1209       N  0.63186328  0.95455159  0.21006133    -0.38760
N1210       N  0.62401584  0.77452241  0.07810704    -0.38200
N1211       N  0.55380883  0.01990432  0.14292458    -0.38210
C1212       C  0.87915736  0.62832904  0.12613964    -0.04870
C1213       C  0.90898348  0.59548566  0.13974855    -0.01990
C1214       C  0.92946248  0.56601138  0.11092248     0.03000
C1215       C  0.92310943  0.57086689  0.06659423    -0.04870
C1216       C  0.89033209  0.60323545  0.05411289    -0.01980
C1217       C  0.87028500  0.63246431  0.08343999     0.03000
C1218       C  0.91702442  0.59082253  0.18432512     0.37650
C1219       C  0.86918225  0.60190570  0.01366835     0.37640
C1220       C  0.83859034  0.66609139  0.06978762     0.36060
C1221       C  0.94980602  0.52707048  0.12910343     0.36060
N1222       N  0.81341568  0.69287998  0.05886306    -0.38760
N1223       N  0.96288435  0.49542967  0.14539531    -0.38760
N1224       N  0.84800827  0.60120981  0.98353170    -0.38200
N1225       N  0.92329538  0.58723131  0.21980175    -0.38210
C1226       C  0.57489184  0.57142908  0.06595432    -0.04870
C1227       C  0.61904414  0.55941229  0.07992310    -0.01990
C1228       C  0.64322029  0.58566904  0.10858292     0.03000
C1229       C  0.62480341  0.62528447  0.12483407    -0.04870
C1230       C  0.58214832  0.63885148  0.10998796    -0.01980
C1231       C  0.55768120  0.61258438  0.08123636     0.03000
C1232       C  0.64113424  0.51897393  0.06727235     0.37650
C1233       C  0.56273376  0.68062257  0.12365267     0.37640
C1234       C  0.51514627  0.63040612  0.06749264     0.36060
C1235       C  0.68774684  0.57070345  0.12119047     0.36060
N1236       N  0.48238176  0.64834858  0.05799785    -0.38760
N1237       N  0.72296206  0.55809738  0.13088380    -0.38760
N1238       N  0.54685103  0.71383892  0.13408269    -0.38200
N1239       N  0.66197436  0.48765442  0.05988805    -0.38210
N1240       N  0.69560616  0.83359269  0.70400519    -0.05650
N1241       N  0.68563414  0.86459415  0.67650493    -0.57770
N1242       N  0.66463952  0.80308142  0.79984637    -0.05330
N1243       N  0.63454930  0.81179834  0.82928864    -0.59900
N1244       N  0.69614326  0.83342872  0.79932550    -0.04930
N1245       N  0.68855980  0.86320630  0.82849270    -0.57750
N1246       N  0.66447100  0.80279249  0.70441425    -0.04610
N1247       N  0.63285766  0.81207514  0.67706605    -0.60250
C1248       C  0.64666162  0.85050166  0.65970928     0.96520
C1249       C  0.65046860  0.84897865  0.84713656     0.96300
N1250       N  0.69702478  0.66830041  0.80025575    -0.05840
N1251       N  0.68985843  0.63926782  0.83037039    -0.58350
N1252       N  0.66507706  0.69831578  0.70456618    -0.03960
N1253       N  0.63467779  0.68915101  0.67599906    -0.59600
N1254       N  0.69700319  0.66821311  0.70425111    -0.05870
N1255       N  0.68866176  0.63816036  0.67564674    -0.58620
N1256       N  0.66581616  0.69913117  0.80095214    -0.03600
N1257       N  0.63692556  0.69176245  0.83171489    -0.59690
Mn1258     Mn  0.66366339  0.75073553  0.75241123     1.18440
C1259       C  0.65237282  0.65434833  0.85006981     0.98610
C1260       C  0.64973338  0.65142204  0.65770515     0.99270
N1261       N  0.80093105  0.83416619  0.79940434    -0.05890
N1262       N  0.80878961  0.86449835  0.82790901    -0.62200
N1263       N  0.83501146  0.80420974  0.70545259    -0.04690
N1264       N  0.86725254  0.81481639  0.67869434    -0.62870
N1265       N  0.80258832  0.83385997  0.70442896    -0.05390
N1266       N  0.81196949  0.86489363  0.67685488    -0.62460
N1267       N  0.83176225  0.80302563  0.80071093    -0.04290
N1268       N  0.86085914  0.81135563  0.83044417    -0.63150
Mn1269     Mn  0.74877281  0.83479492  0.75147289     1.10660
C1270       C  0.84625171  0.84986178  0.84732298     0.99830
C1271       C  0.85239661  0.85274860  0.66091685     0.99900
N1272       N  0.80442323  0.66882646  0.70395990    -0.05400
N1273       N  0.81374543  0.63926223  0.67478439    -0.60780
N1274       N  0.83334650  0.69901685  0.80075080    -0.04720
N1275       N  0.86245986  0.69035697  0.83067224    -0.57510
N1276       N  0.80156311  0.66905210  0.80047614    -0.06030
N1277       N  0.80794622  0.64000892  0.83053520    -0.60340
N1278       N  0.83579691  0.69941156  0.70460891    -0.05020
N1279       N  0.86702489  0.69127840  0.67594662    -0.57530
Mn1280     Mn  0.75005223  0.66732922  0.75191434     1.20190
Mn1281     Mn  0.83531472  0.75131293  0.75287785     1.10090
Cl1282     Cl  0.74947017  0.75103489  0.75164578    -0.85500
C1283       C  0.85250490  0.65400566  0.65726911     0.96830
C1284       C  0.84609021  0.65340784  0.84931642     0.96630
C1285       C  0.94962871  0.95889781  0.96776567    -0.02020
C1286       C  0.95130283  0.54175712  0.96687252    -0.02020
C1287       C  0.54984754  0.95896885  0.96884137    -0.02020
C1288       C  0.54990522  0.54030001  0.96814353    -0.02020
C1289       C  0.52397395  0.49978201  0.95200078     0.01030
C1290       C  0.97675156  0.49988912  0.95079313     0.01030
C1291       C  0.94913272  0.95870842  0.53305186    -0.02020
C1292       C  0.54606507  0.95814829  0.53589139    -0.02020
C1293       C  0.52138380  0.93442743  0.50096403     0.01030
C1294       C  0.97653815  0.93467511  0.50023956     0.01030
C1295       C  0.54755457  0.54168366  0.53463471    -0.02020
C1296       C  0.97431797  0.49997116  0.54972089     0.01030
C1297       C  0.52084856  0.50026705  0.55078954     0.01030
C1298       C  0.57734932  0.97770795  0.50356459     0.01030
C1299       C  0.57726232  0.52103096  0.50259871     0.01030
C1300       C  0.97727682  0.56559017  0.50056732     0.01030
C1301       C  0.52234062  0.56586346  0.50038895     0.01030
C1302       C  0.94927114  0.54153599  0.53351185    -0.02020
C1303       C  0.92051644  0.97909314  0.50069074     0.01030
C1304       C  0.92043372  0.52253107  0.49991458     0.01030
C1305       C  0.92083106  0.92846492  0.93838271    -0.04870
C1306       C  0.94142576  0.89371008  0.91508223    -0.01990
C1307       C  0.91783254  0.86998695  0.88438105     0.03000
C1308       C  0.87109450  0.87547256  0.87970138    -0.04870
C1309       C  0.84850140  0.90617902  0.90551828    -0.01980
C1310       C  0.87259472  0.93318526  0.93360887     0.03000
C1311       C  0.98549016  0.87703217  0.92422870     0.37650
C1312       C  0.79990860  0.91117228  0.90275507     0.37640
C1313       C  0.84620670  0.96761466  0.95405598     0.36060
C1314       C  0.94290379  0.84027617  0.85693308     0.36060
N1315       N  0.82401522  0.99469834  0.96941131    -0.38760
N1316       N  0.96326072  0.81682536  0.83532176    -0.38760
N1317       N  0.76135480  0.91590064  0.90066316    -0.38200
N1318       N  0.01876701  0.85788936  0.92845869    -0.38210
C1319       C  0.92684317  0.57190966  0.93389786    -0.04870
C1320       C  0.93118880  0.61925511  0.93286324    -0.01990
C1321       C  0.90286277  0.64566665  0.90745070     0.03000
C1322       C  0.87141978  0.62611917  0.88049035    -0.04870
C1323       C  0.86860676  0.57961433  0.87944382    -0.01980
C1324       C  0.89844100  0.55328369  0.90290822     0.03000
C1325       C  0.96746848  0.64206459  0.95357505     0.37650
C1326       C  0.83810029  0.55770709  0.85081328     0.37640
C1327       C  0.90843747  0.51102747  0.88420878     0.36060
C1328       C  0.90550468  0.69353022  0.91011322     0.36060
N1329       N  0.91440821  0.48016446  0.86360694    -0.38760
N1330       N  0.90767137  0.73161189  0.91251387    -0.38760
N1331       N  0.81430781  0.53978718  0.82803396    -0.38200
N1332       N  0.99667222  0.66168613  0.96823738    -0.38210
C1333       C  0.62539081  0.87577420  0.87778170    -0.04870
C1334       C  0.58996562  0.90246627  0.86438781    -0.01990
C1335       C  0.56791086  0.93127891  0.89259714     0.03000
C1336       C  0.57916035  0.93215755  0.93621231    -0.04870
C1337       C  0.61821070  0.90670452  0.94782043    -0.01980
C1338       C  0.64005432  0.87837520  0.91896002     0.03000
C1339       C  0.57612695  0.90008752  0.82087009     0.37650
C1340       C  0.63988590  0.91001834  0.98786431     0.37640
C1341       C  0.67831405  0.85147134  0.93158594     0.36060
C1342       C  0.53316396  0.95821586  0.87455540     0.36060
N1343       N  0.70878026  0.83017439  0.94161384    -0.38760
N1344       N  0.50670661  0.97811158  0.85621871    -0.38760
N1345       N  0.66061513  0.90965825  0.01824078    -0.38200
N1346       N  0.56507673  0.89800710  0.78635515    -0.38210
C1347       C  0.92178574  0.92911299  0.56429912    -0.05010
C1348       C  0.92729930  0.88207485  0.56729004    -0.01990
C1349       C  0.90568840  0.85757299  0.59935628     0.03000
C1350       C  0.87766004  0.87884659  0.62884649    -0.04870
C1351       C  0.87028800  0.92470688  0.62487845    -0.01980
C1352       C  0.88805078  0.94807779  0.59049639     0.03000
C1353       C  0.94776021  0.85621930  0.53421132     0.37650
C1354       C  0.84440805  0.94876377  0.65620391     0.37640
C1355       C  0.86355788  0.98720537  0.57808104     0.36060
C1356       C  0.91033907  0.80967016  0.60014097     0.36060
N1357       N  0.84041870  0.01642249  0.56898700    -0.38760
N1358       N  0.91402898  0.77158417  0.60035632    -0.38760
N1359       N  0.82418241  0.96821438  0.68121127    -0.38200
N1360       N  0.96146743  0.83330349  0.50816284    -0.38210
C1361       C  0.57830189  0.56762642  0.93545777    -0.04870
C1362       C  0.62657431  0.56991193  0.93583597    -0.01990
C1363       C  0.65011843  0.60081846  0.91058053     0.03000
C1364       C  0.62703650  0.62812772  0.88216346    -0.04870
C1365       C  0.57997754  0.62442523  0.87971537    -0.01980
C1366       C  0.55690596  0.59193807  0.90319326     0.03000
C1367       C  0.65391135  0.53663458  0.95617998     0.37650
C1368       C  0.55501127  0.65101032  0.84979598     0.37640
C1369       C  0.51607971  0.57671179  0.88459588     0.36060
C1370       C  0.69871972  0.60435291  0.91399441     0.36060
N1371       N  0.48639076  0.56749152  0.86334314    -0.38760
N1372       N  0.73739044  0.60699511  0.91686654    -0.38760
N1373       N  0.53479639  0.67187368  0.82607992    -0.38200
N1374       N  0.67725363  0.51021646  0.97073676    -0.38210
C1375       C  0.56816305  0.92797629  0.57075273    -0.04870
C1376       C  0.58011606  0.94505259  0.61114227    -0.01990
C1377       C  0.60703655  0.92027374  0.63905825     0.03000
C1378       C  0.61929809  0.87660586  0.62987225    -0.04870
C1379       C  0.60328227  0.85697485  0.59346511    -0.01980
C1380       C  0.57798343  0.88179702  0.56431622     0.03000
C1381       C  0.56440609  0.98711193  0.62703670     0.37650
C1382       C  0.61483878  0.81099935  0.58498096     0.37640
C1383       C  0.56462866  0.85749175  0.52781696     0.36060
C1384       C  0.62085942  0.93937830  0.67862328     0.36060
N1385       N  0.55739691  0.83409543  0.50026030    -0.38760
N1386       N  0.63186332  0.95455160  0.71006131    -0.38760
N1387       N  0.62401582  0.77452240  0.57810705    -0.38200
N1388       N  0.55380885  0.01990432  0.64292458    -0.38210
C1389       C  0.87915736  0.62832904  0.62613964    -0.04870
C1390       C  0.90898348  0.59548566  0.63974855    -0.01990
C1391       C  0.92946248  0.56601137  0.61092248     0.03000
C1392       C  0.92310943  0.57086689  0.56659423    -0.04870
C1393       C  0.89033209  0.60323545  0.55411289    -0.01980
C1394       C  0.87028500  0.63246431  0.58343999     0.03000
C1395       C  0.91702442  0.59082252  0.68432512     0.37650
C1396       C  0.86918225  0.60190570  0.51366835     0.37640
C1397       C  0.83859035  0.66609139  0.56978762     0.36060
C1398       C  0.94980602  0.52707047  0.62910343     0.36060
N1399       N  0.81341569  0.69287998  0.55886306    -0.38760
N1400       N  0.96288436  0.49542967  0.64539531    -0.38760
N1401       N  0.84800826  0.60120981  0.48353170    -0.38200
N1402       N  0.92329537  0.58723130  0.71980175    -0.38210
C1403       C  0.57489184  0.57142908  0.56595432    -0.04870
C1404       C  0.61904414  0.55941228  0.57992310    -0.01990
C1405       C  0.64322028  0.58566903  0.60858293     0.03000
C1406       C  0.62480341  0.62528446  0.62483407    -0.04870
C1407       C  0.58214832  0.63885148  0.60998796    -0.01980
C1408       C  0.55768120  0.61258438  0.58123636     0.03000
C1409       C  0.64113424  0.51897393  0.56727235     0.37650
C1410       C  0.56273377  0.68062257  0.62365266     0.37640
C1411       C  0.51514628  0.63040612  0.56749265     0.36060
C1412       C  0.68774682  0.57070342  0.62119049     0.36060
N1413       N  0.48238176  0.64834858  0.55799786    -0.38760
N1414       N  0.72296203  0.55809734  0.63088384    -0.38760
N1415       N  0.54685104  0.71383892  0.63408268    -0.38200
N1416       N  0.66197437  0.48765442  0.55988804    -0.38210
loop_ 
_geom_bond_atom_site_label_1 
_geom_bond_atom_site_label_2 
_geom_bond_distance 
_geom_bond_site_symmetry_2 
_ccdc_geom_bond_type 
N1            N2   1.320       .  A
N1            N7   1.317       .  A
N1          Mn30   2.203       .  S
N2            C9   1.353       .  A
N3            N5   1.315       .  A
N3            N4   1.320       .  A
N3          Mn19   2.197       .  S
N4           C10   1.352       .  A
N5            N6   1.317       .  A
N5          Mn30   2.181       .  S
N6           C10   1.348       .  A
N7            N8   1.319       .  A
N7          Mn19   2.199       .  S
N8            C9   1.352       .  A
C9          C139   1.485       .  S
C10          C94   1.470       .  S
N11          N17   1.314       .  A
N11          N12   1.320       .  A
N11         Mn41   2.200       .  S
N12          C20   1.354       .  A
N13          N14   1.322       .  A
N13          N15   1.313       .  A
N13         Mn19   2.208       .  S
N14          C21   1.357       .  A
N15          N16   1.318       .  A
N15         Mn41   2.205       .  S
N16          C21   1.356       .  A
N17          N18   1.321       .  A
N17         Mn19   2.203       .  S
N18          C20   1.355       .  A
Mn19        Cl43   2.552       .  S
C20         C125   1.497       .  S
C21         C167   1.518       .  S
N22          N23   1.319       .  A
N22          N28   1.313       .  A
N22         Mn30   2.192       .  S
N23          C31   1.353       .  A
N24          N26   1.315       .  A
N24          N25   1.320       .  A
N24         Mn42   2.205       .  S
N25          C32   1.355       .  A
N26          N27   1.317       .  A
N26         Mn30   2.188       .  S
N27          C32   1.352       .  A
N28          N29   1.317       .  A
N28         Mn42   2.194       .  S
N29          C31   1.354       .  A
Mn30        Cl43   2.535       .  S
C31          C69   1.497       .  S
C32         C111   1.494       .  S
N33          N34   1.322       .  A
N33          N39   1.317       .  A
N33         Mn41   2.220       .  S
N34          C44   1.354       .  A
N35          N36   1.322       .  A
N35          N37   1.313       .  A
N35         Mn42   2.202       .  S
N36          C45   1.357       .  A
N37          N38   1.317       .  A
N37         Mn41   2.193       .  S
N38          C45   1.353       .  A
N39          N40   1.323       .  A
N39         Mn42   2.206       .  S
N40          C44   1.352       .  A
Mn41        Cl43   2.534       .  S
Mn42        Cl43   2.554       .  S
C44         C150   1.487       .  S
C45          C83   1.500       .  S
C46          C66   1.578       .  S
C46         C405   1.576       .  S
C46         C232   1.505       .  S
C46         C241   1.489       .  S
C47          C80   1.575       .  S
C47          C51   1.559   1_545  S
C47         C238   1.517       .  S
C47         C242   1.512       .  S
C48          C97   1.578       .  S
C48         C404   1.551       .  S
C48         C231   1.521       .  S
C48         C236   1.500       .  S
C49         C122   1.575       .  S
C49          C50   1.544   1_545  S
C49         C237   1.493       .  S
C49         C239   1.523       .  S
C50         C402   1.551       .  S
C50         C759   1.405   1_455  D
C51         C400   1.576       .  S
C51         C758   1.405       .  D
C52         C108   1.566       .  S
C52          C55   1.510       .  S
C52          C64   1.479       .  S
C52         C411   1.556       .  S
C53         C136   1.586       .  S
C53          C54   1.525       .  S
C53          C59   1.507       .  S
C53         C412   1.550       .  S
C54         C225   1.521   1_554  S
C54         C763   1.334   1_455  D
C55         C223   1.505   1_554  S
C55         C762   1.334       .  D
C56         C164   1.581       .  S
C56          C58   1.571       .  S
C56          C60   1.485       .  S
C56          C62   1.519       .  S
C57          C63   1.551   1_565  S
C57         C406   1.556       .  S
C57         C766   1.385   1_565  D
C58         C407   1.550   1_545  S
C58         C765   1.385   1_445  D
C59         C225   1.500   1_554  S
C59         C414   1.312       .  D
C60         C226   1.493   1_554  S
C60         C413   1.312   1_545  D
C61          C63   1.524       .  S
C61         C224   1.517   1_554  S
C61         C770   1.340       .  D
C62         C226   1.523   1_554  S
C62         C769   1.340   1_455  D
C63         C153   1.581       .  S
C63          C65   1.499   1_554  S
C64         C223   1.489   1_554  S
C64         C419   1.315   1_554  D
C65         C224   1.512       .  S
C65         C418   1.315   1_546  D
C66          C67   1.424       .  A
C66          C71   1.450       .  A
C67          C68   1.412       .  A
C67          C72   1.435       .  S
C68          C69   1.408       .  A
C68          C75   1.457       .  S
C69          C70   1.410       .  A
C70          C71   1.417       .  A
C70          C73   1.456       .  S
C71          C74   1.455       .  S
C72          N79   1.154       .  T
C73          N78   1.157       .  T
C74          N76   1.158       .  T
C75          N77   1.158       .  T
C80          C81   1.440       .  A
C80          C85   1.427       .  A
C81          C82   1.420       .  A
C81          C86   1.449       .  S
C82          C83   1.411       .  A
C82          C89   1.454       .  S
C83          C84   1.411       .  A
C84          C85   1.411       .  A
C84          C87   1.458       .  S
C85          C88   1.442       .  S
C86          N93   1.157       .  T
C87          N92   1.158       .  T
C88          N90   1.157   1_545  T
C89          N91   1.158       .  T
C94          C95   1.395       .  A
C94          C99   1.395       .  A
C95          C96   1.412       .  A
C95         C100   1.458       .  S
C96          C97   1.439       .  A
C96         C103   1.438       .  S
C97          C98   1.442       .  A
C98          C99   1.414       .  A
C98         C101   1.444       .  S
C99         C102   1.456       .  S
C100        N107   1.158       .  T
C101        N106   1.156       .  T
C102        N104   1.157       .  T
C103        N105   1.153       .  T
C108        C109   1.436       .  A
C108        C113   1.422       .  A
C109        C110   1.416       .  A
C109        C114   1.446       .  S
C110        C111   1.409       .  A
C110        C117   1.456       .  S
C111        C112   1.410       .  A
C112        C113   1.408       .  A
C112        C115   1.454       .  S
C113        C116   1.445       .  S
C114        N121   1.156       .  T
C115        N120   1.158       .  T
C116        N118   1.157       .  T
C117        N119   1.158       .  T
C122        C123   1.438       .  A
C122        C127   1.421       .  A
C123        C124   1.418       .  A
C123        C128   1.449       .  S
C124        C125   1.409       .  A
C124        C131   1.455       .  S
C125        C126   1.407       .  A
C126        C127   1.413       .  A
C126        C129   1.457       .  S
C127        C130   1.435       .  S
C128        N135   1.157       .  T
C129        N134   1.158       .  T
C130        N132   1.155   1_455  T
C131        N133   1.158       .  T
C136        C137   1.441       .  A
C136        C141   1.442       .  A
C137        C138   1.417       .  A
C137        C142   1.446       .  S
C138        C139   1.401       .  A
C138        C145   1.457       .  S
C139        C140   1.398       .  A
C140        C141   1.417       .  A
C140        C143   1.458       .  S
C141        C144   1.442       .  S
C142        N149   1.158       .  T
C143        N148   1.157       .  T
C144        N146   1.155       .  T
C145        N147   1.158       .  T
C150        C151   1.401       .  A
C150        C155   1.400       .  A
C151        C152   1.417       .  A
C151        C156   1.456       .  S
C152        C153   1.441       .  A
C152        C159   1.447       .  S
C153        C154   1.438       .  A
C154        C155   1.417       .  A
C154        C157   1.445       .  S
C155        C158   1.454       .  S
C156        N163   1.158       .  T
C157        N162   1.157   1_554  T
C158        N160   1.157       .  T
C159        N161   1.157   1_545  T
C164        C165   1.436       .  A
C164        C169   1.430       .  A
C165        C166   1.418       .  A
C165        C170   1.444       .  S
C166        C167   1.415       .  A
C166        C173   1.458       .  S
C167        C168   1.418       .  A
C168        C169   1.424       .  A
C168        C171   1.454       .  S
C169        C172   1.445       .  S
C170        N177   1.154   1_545  T
C171        N176   1.158       .  T
C172        N174   1.156   1_455  T
C173        N175   1.158       .  T
N178        N179   1.320       .  A
N178        N184   1.317       .  A
N178       Mn207   2.203       .  S
N179        C186   1.353       .  A
N180        N182   1.315       .  A
N180        N181   1.320       .  A
N180       Mn196   2.197       .  S
N181        C187   1.352       .  A
N182        N183   1.317       .  A
N182       Mn207   2.181       .  S
N183        C187   1.348       .  A
N184        N185   1.319       .  A
N184       Mn196   2.199       .  S
N185        C186   1.352       .  A
C186        C316   1.485       .  S
C187        C271   1.470       .  S
N188        N194   1.314       .  A
N188        N189   1.320       .  A
N188       Mn218   2.200       .  S
N189        C197   1.354       .  A
N190        N191   1.322       .  A
N190        N192   1.313       .  A
N190       Mn196   2.208       .  S
N191        C198   1.357       .  A
N192        N193   1.318       .  A
N192       Mn218   2.205       .  S
N193        C198   1.356       .  A
N194        N195   1.321       .  A
N194       Mn196   2.203       .  S
N195        C197   1.355       .  A
Mn196      Cl220   2.552       .  S
C197        C302   1.497       .  S
C198        C344   1.518       .  S
N199        N200   1.319       .  A
N199        N205   1.313       .  A
N199       Mn207   2.192       .  S
N200        C208   1.353       .  A
N201        N203   1.315       .  A
N201        N202   1.320       .  A
N201       Mn219   2.205       .  S
N202        C209   1.355       .  A
N203        N204   1.317       .  A
N203       Mn207   2.188       .  S
N204        C209   1.352       .  A
N205        N206   1.317       .  A
N205       Mn219   2.194       .  S
N206        C208   1.354       .  A
Mn207      Cl220   2.535       .  S
C208        C246   1.497       .  S
C209        C288   1.494       .  S
N210        N211   1.322       .  A
N210        N216   1.317       .  A
N210       Mn218   2.220       .  S
N211        C221   1.354       .  A
N212        N213   1.322       .  A
N212        N214   1.313       .  A
N212       Mn219   2.202       .  S
N213        C222   1.357       .  A
N214        N215   1.317       .  A
N214       Mn218   2.193       .  S
N215        C222   1.353       .  A
N216        N217   1.323       .  A
N216       Mn219   2.206       .  S
N217        C221   1.352       .  A
Mn218      Cl220   2.534       .  S
Mn219      Cl220   2.554       .  S
C221        C327   1.487       .  S
C222        C260   1.500       .  S
C223        C243   1.578       .  S
C223        C582   1.576       .  S
C224        C257   1.575       .  S
C224        C228   1.559   1_545  S
C225        C274   1.578       .  S
C225        C581   1.551       .  S
C226        C299   1.575       .  S
C226        C227   1.544   1_545  S
C227        C579   1.551       .  S
C227        C936   1.405   1_455  D
C228        C577   1.576       .  S
C228        C935   1.405       .  D
C229        C285   1.566       .  S
C229        C232   1.510       .  S
C229        C588   1.556       .  S
C229        C241   1.479       .  S
C230        C313   1.586       .  S
C230        C231   1.525       .  S
C230        C589   1.550       .  S
C230        C236   1.507       .  S
C231        C940   1.334   1_455  D
C232        C939   1.334       .  D
C233        C341   1.581       .  S
C233        C235   1.571       .  S
C233        C237   1.485       .  S
C233        C239   1.519       .  S
C234        C583   1.556       .  S
C234        C240   1.551   1_565  S
C234        C943   1.385   1_565  D
C235        C584   1.550   1_545  S
C235        C942   1.385   1_445  D
C236        C591   1.312       .  D
C237        C590   1.312   1_545  D
C238        C240   1.524       .  S
C238        C947   1.340       .  D
C239        C946   1.340   1_455  D
C240        C330   1.581       .  S
C240        C242   1.499       .  S
C241        C596   1.315       .  D
C242        C595   1.315   1_545  D
C243        C244   1.424       .  A
C243        C248   1.450       .  A
C244        C245   1.412       .  A
C244        C249   1.435       .  S
C245        C246   1.408       .  A
C245        C252   1.457       .  S
C246        C247   1.410       .  A
C247        C248   1.417       .  A
C247        C250   1.456       .  S
C248        C251   1.455       .  S
C249        N256   1.154       .  T
C250        N255   1.157       .  T
C251        N253   1.158       .  T
C252        N254   1.158       .  T
C257        C258   1.440       .  A
C257        C262   1.427       .  A
C258        C259   1.420       .  A
C258        C263   1.449       .  S
C259        C260   1.411       .  A
C259        C266   1.454       .  S
C260        C261   1.411       .  A
C261        C262   1.411       .  A
C261        C264   1.458       .  S
C262        C265   1.442       .  S
C263        N270   1.157       .  T
C264        N269   1.158       .  T
C265        N267   1.157   1_545  T
C266        N268   1.158       .  T
C271        C272   1.395       .  A
C271        C276   1.395       .  A
C272        C273   1.412       .  A
C272        C277   1.458       .  S
C273        C274   1.439       .  A
C273        C280   1.438       .  S
C274        C275   1.442       .  A
C275        C276   1.414       .  A
C275        C278   1.444       .  S
C276        C279   1.456       .  S
C277        N284   1.158       .  T
C278        N283   1.156   1_556  T
C279        N281   1.157       .  T
C280        N282   1.153       .  T
C285        C286   1.436       .  A
C285        C290   1.422       .  A
C286        C287   1.416       .  A
C286        C291   1.446       .  S
C287        C288   1.409       .  A
C287        C294   1.456       .  S
C288        C289   1.410       .  A
C289        C290   1.408       .  A
C289        C292   1.454       .  S
C290        C293   1.445       .  S
C291        N298   1.156       .  T
C292        N297   1.158       .  T
C293        N295   1.157       .  T
C294        N296   1.158       .  T
C299        C300   1.438       .  A
C299        C304   1.421       .  A
C300        C301   1.418       .  A
C300        C305   1.449       .  S
C301        C302   1.409       .  A
C301        C308   1.455       .  S
C302        C303   1.407       .  A
C303        C304   1.413       .  A
C303        C306   1.457       .  S
C304        C307   1.435       .  S
C305        N312   1.157       .  T
C306        N311   1.158       .  T
C307        N309   1.155   1_455  T
C308        N310   1.158       .  T
C313        C314   1.441       .  A
C313        C318   1.442       .  A
C314        C315   1.417       .  A
C314        C319   1.446       .  S
C315        C316   1.401       .  A
C315        C322   1.457       .  S
C316        C317   1.398       .  A
C317        C318   1.417       .  A
C317        C320   1.458       .  S
C318        C321   1.442       .  S
C319        N326   1.158       .  T
C320        N325   1.157       .  T
C321        N323   1.155       .  T
C322        N324   1.158       .  T
C327        C328   1.401       .  A
C327        C332   1.400       .  A
C328        C329   1.417       .  A
C328        C333   1.456       .  S
C329        C330   1.441       .  A
C329        C336   1.447       .  S
C330        C331   1.438       .  A
C331        C332   1.417       .  A
C331        C334   1.445       .  S
C332        C335   1.454       .  S
C333        N340   1.158       .  T
C334        N339   1.157       .  T
C335        N337   1.157       .  T
C336        N338   1.157   1_545  T
C341        C342   1.436       .  A
C341        C346   1.430       .  A
C342        C343   1.418       .  A
C342        C347   1.444       .  S
C343        C344   1.415       .  A
C343        C350   1.458       .  S
C344        C345   1.418       .  A
C345        C346   1.424       .  A
C345        C348   1.454       .  S
C346        C349   1.445       .  S
C347        N354   1.154   1_545  T
C348        N353   1.158       .  T
C349        N351   1.156   1_455  T
C350        N352   1.158       .  T
N355        N356   1.320       .  A
N355        N361   1.317       .  A
N355       Mn384   2.203       .  S
N356        C363   1.353       .  A
N357        N359   1.315       .  A
N357        N358   1.320       .  A
N357       Mn373   2.197       .  S
N358        C364   1.352       .  A
N359        N360   1.317       .  A
N359       Mn384   2.181       .  S
N360        C364   1.348       .  A
N361        N362   1.319       .  A
N361       Mn373   2.199       .  S
N362        C363   1.352       .  A
C363        C493   1.485       .  S
C364        C448   1.470       .  S
N365        N371   1.314       .  A
N365        N366   1.320       .  A
N365       Mn395   2.200       .  S
N366        C374   1.354       .  A
N367        N368   1.322       .  A
N367        N369   1.313       .  A
N367       Mn373   2.208       .  S
N368        C375   1.357       .  A
N369        N370   1.318       .  A
N369       Mn395   2.205       .  S
N370        C375   1.356       .  A
N371        N372   1.321       .  A
N371       Mn373   2.203       .  S
N372        C374   1.355       .  A
Mn373      Cl397   2.552       .  S
C374        C479   1.497       .  S
C375        C521   1.518       .  S
N376        N377   1.319       .  A
N376        N382   1.313       .  A
N376       Mn384   2.192       .  S
N377        C385   1.353       .  A
N378        N380   1.315       .  A
N378        N379   1.320       .  A
N378       Mn396   2.205       .  S
N379        C386   1.355       .  A
N380        N381   1.317       .  A
N380       Mn384   2.188       .  S
N381        C386   1.352       .  A
N382        N383   1.317       .  A
N382       Mn396   2.194       .  S
N383        C385   1.354       .  A
Mn384      Cl397   2.535       .  S
C385        C423   1.497       .  S
C386        C465   1.494       .  S
N387        N388   1.322       .  A
N387        N393   1.317       .  A
N387       Mn395   2.220       .  S
N388        C398   1.354       .  A
N389        N390   1.322       .  A
N389        N391   1.313       .  A
N389       Mn396   2.202       .  S
N390        C399   1.357       .  A
N391        N392   1.317       .  A
N391       Mn395   2.193       .  S
N392        C399   1.353       .  A
N393        N394   1.323       .  A
N393       Mn396   2.206       .  S
N394        C398   1.352       .  A
Mn395      Cl397   2.534       .  S
Mn396      Cl397   2.554       .  S
C398        C504   1.487       .  S
C399        C437   1.500       .  S
C400        C420   1.578       .  S
C400        C586   1.505       .  S
C400        C595   1.489       .  S
C401        C434   1.575       .  S
C401        C405   1.559       .  S
C401        C592   1.517       .  S
C401        C596   1.512       .  S
C402        C451   1.578       .  S
C402        C585   1.521       .  S
C402        C590   1.500       .  S
C403        C476   1.575       .  S
C403        C404   1.544       .  S
C403        C591   1.493       .  S
C403        C593   1.523       .  S
C404       C1113   1.405   1_455  D
C405       C1112   1.405       .  D
C406        C462   1.566       .  S
C406        C409   1.510       .  S
C406        C418   1.479       .  S
C407        C490   1.586       .  S
C407        C408   1.525       .  S
C407        C413   1.507       .  S
C408        C579   1.521   1_554  S
C408       C1117   1.334   1_455  D
C409        C577   1.505   1_554  S
C409       C1116   1.334       .  D
C410        C518   1.581       .  S
C410        C412   1.571       .  S
C410        C414   1.485       .  S
C410        C416   1.519       .  S
C411        C417   1.551       .  S
C411       C1120   1.385       .  D
C412       C1119   1.385   1_455  D
C413        C579   1.500   1_554  S
C414        C580   1.493   1_554  S
C415        C578   1.517   1_554  S
C415        C417   1.524       .  S
C415       C1124   1.340       .  D
C416        C580   1.523   1_554  S
C416       C1123   1.340   1_455  D
C417        C507   1.581       .  S
C417        C419   1.499   1_554  S
C418        C577   1.489   1_554  S
C419        C578   1.512       .  S
C420        C421   1.424       .  A
C420        C425   1.450       .  A
C421        C422   1.412       .  A
C421        C426   1.435       .  S
C422        C423   1.408       .  A
C422        C429   1.457       .  S
C423        C424   1.410       .  A
C424        C425   1.417       .  A
C424        C427   1.456       .  S
C425        C428   1.455       .  S
C426        N433   1.154       .  T
C427        N432   1.157       .  T
C428        N430   1.158       .  T
C429        N431   1.158       .  T
C434        C435   1.440       .  A
C434        C439   1.427       .  A
C435        C436   1.420       .  A
C435        C440   1.449       .  S
C436        C437   1.411       .  A
C436        C443   1.454       .  S
C437        C438   1.411       .  A
C438        C439   1.411       .  A
C438        C441   1.458       .  S
C439        C442   1.442       .  S
C440        N447   1.157       .  T
C441        N446   1.158       .  T
C442        N444   1.157       .  T
C443        N445   1.158       .  T
C448        C449   1.395       .  A
C448        C453   1.395       .  A
C449        C450   1.412       .  A
C449        C454   1.458       .  S
C450        C451   1.439       .  A
C450        C457   1.438       .  S
C451        C452   1.442       .  A
C452        C453   1.414       .  A
C452        C455   1.444       .  S
C453        C456   1.456       .  S
C454        N461   1.158       .  T
C455        N460   1.156       .  T
C456        N458   1.157       .  T
C457        N459   1.153       .  T
C462        C463   1.436       .  A
C462        C467   1.422       .  A
C463        C464   1.416       .  A
C463        C468   1.446       .  S
C464        C465   1.409       .  A
C464        C471   1.456       .  S
C465        C466   1.410       .  A
C466        C467   1.408       .  A
C466        C469   1.454       .  S
C467        C470   1.445       .  S
C468        N475   1.156       .  T
C469        N474   1.158       .  T
C470        N472   1.157   1_565  T
C471        N473   1.158       .  T
C476        C477   1.438       .  A
C476        C481   1.421       .  A
C477        C478   1.418       .  A
C477        C482   1.449       .  S
C478        C479   1.409       .  A
C478        C485   1.455       .  S
C479        C480   1.407       .  A
C480        C481   1.413       .  A
C480        C483   1.457       .  S
C481        C484   1.435       .  S
C482        N489   1.157       .  T
C483        N488   1.158       .  T
C484        N486   1.155   1_455  T
C485        N487   1.158       .  T
C490        C491   1.441       .  A
C490        C495   1.442       .  A
C491        C492   1.417       .  A
C491        C496   1.446       .  S
C492        C493   1.401       .  A
C492        C499   1.457       .  S
C493        C494   1.398       .  A
C494        C495   1.417       .  A
C494        C497   1.458       .  S
C495        C498   1.442       .  S
C496        N503   1.158   1_565  T
C497        N502   1.157       .  T
C498        N500   1.155       .  T
C499        N501   1.158       .  T
C504        C505   1.401       .  A
C504        C509   1.400       .  A
C505        C506   1.417       .  A
C505        C510   1.456       .  S
C506        C507   1.441       .  A
C506        C513   1.447       .  S
C507        C508   1.438       .  A
C508        C509   1.417       .  A
C508        C511   1.445       .  S
C509        C512   1.454       .  S
C510        N517   1.158       .  T
C511        N516   1.157   1_554  T
C512        N514   1.157       .  T
C513        N515   1.157       .  T
C518        C519   1.436       .  A
C518        C523   1.430       .  A
C519        C520   1.418       .  A
C519        C524   1.444       .  S
C520        C521   1.415       .  A
C520        C527   1.458       .  S
C521        C522   1.418       .  A
C522        C523   1.424       .  A
C522        C525   1.454       .  S
C523        C526   1.445       .  S
C524        N531   1.154       .  T
C525        N530   1.158       .  T
C526        N528   1.156   1_455  T
C527        N529   1.158       .  T
N532        N533   1.320       .  A
N532        N538   1.317       .  A
N532       Mn561   2.203       .  S
N533        C540   1.353       .  A
N534        N536   1.315       .  A
N534        N535   1.320       .  A
N534       Mn550   2.197       .  S
N535        C541   1.352       .  A
N536        N537   1.317       .  A
N536       Mn561   2.181       .  S
N537        C541   1.348       .  A
N538        N539   1.319       .  A
N538       Mn550   2.199       .  S
N539        C540   1.352       .  A
C540        C670   1.485       .  S
C541        C625   1.470       .  S
N542        N548   1.314       .  A
N542        N543   1.320       .  A
N542       Mn572   2.200       .  S
N543        C551   1.354       .  A
N544        N545   1.322       .  A
N544        N546   1.313       .  A
N544       Mn550   2.208       .  S
N545        C552   1.357       .  A
N546        N547   1.318       .  A
N546       Mn572   2.205       .  S
N547        C552   1.356       .  A
N548        N549   1.321       .  A
N548       Mn550   2.203       .  S
N549        C551   1.355       .  A
Mn550      Cl574   2.552       .  S
C551        C656   1.497       .  S
C552        C698   1.518       .  S
N553        N554   1.319       .  A
N553        N559   1.313       .  A
N553       Mn561   2.192       .  S
N554        C562   1.353       .  A
N555        N557   1.315       .  A
N555        N556   1.320       .  A
N555       Mn573   2.205       .  S
N556        C563   1.355       .  A
N557        N558   1.317       .  A
N557       Mn561   2.188       .  S
N558        C563   1.352       .  A
N559        N560   1.317       .  A
N559       Mn573   2.194       .  S
N560        C562   1.354       .  A
Mn561      Cl574   2.535       .  S
C562        C600   1.497       .  S
C563        C642   1.494       .  S
N564        N565   1.322       .  A
N564        N570   1.317       .  A
N564       Mn572   2.220       .  S
N565        C575   1.354       .  A
N566        N567   1.322       .  A
N566        N568   1.313       .  A
N566       Mn573   2.202       .  S
N567        C576   1.357       .  A
N568        N569   1.317       .  A
N568       Mn572   2.193       .  S
N569        C576   1.353       .  A
N570        N571   1.323       .  A
N570       Mn573   2.206       .  S
N571        C575   1.352       .  A
Mn572      Cl574   2.534       .  S
Mn573      Cl574   2.554       .  S
C575        C681   1.487       .  S
C576        C614   1.500       .  S
C577        C597   1.578       .  S
C578        C611   1.575       .  S
C578        C582   1.559       .  S
C579        C628   1.578       .  S
C580        C653   1.575       .  S
C580        C581   1.544       .  S
C581       C1290   1.405   1_455  D
C582       C1289   1.405       .  D
C583        C639   1.566       .  S
C583        C586   1.510       .  S
C583        C595   1.479       .  S
C584        C667   1.586       .  S
C584        C585   1.525       .  S
C584        C590   1.507       .  S
C585       C1294   1.334   1_455  D
C586       C1293   1.334       .  D
C587        C695   1.581       .  S
C587        C589   1.571       .  S
C587        C591   1.485       .  S
C587        C593   1.519       .  S
C588        C594   1.551       .  S
C588       C1297   1.385       .  D
C589       C1296   1.385   1_455  D
C592        C594   1.524       .  S
C592       C1301   1.340       .  D
C593       C1300   1.340   1_455  D
C594        C684   1.581       .  S
C594        C596   1.499       .  S
C597        C598   1.424       .  A
C597        C602   1.450       .  A
C598        C599   1.412       .  A
C598        C603   1.435       .  S
C599        C600   1.408       .  A
C599        C606   1.457       .  S
C600        C601   1.410       .  A
C601        C602   1.417       .  A
C601        C604   1.456       .  S
C602        C605   1.455       .  S
C603        N610   1.154       .  T
C604        N609   1.157       .  T
C605        N607   1.158       .  T
C606        N608   1.158       .  T
C611        C612   1.440       .  A
C611        C616   1.427       .  A
C612        C613   1.420       .  A
C612        C617   1.449       .  S
C613        C614   1.411       .  A
C613        C620   1.454       .  S
C614        C615   1.411       .  A
C615        C616   1.411       .  A
C615        C618   1.458       .  S
C616        C619   1.442       .  S
C617        N624   1.157       .  T
C618        N623   1.158       .  T
C619        N621   1.157       .  T
C620        N622   1.158       .  T
C625        C626   1.395       .  A
C625        C630   1.395       .  A
C626        C627   1.412       .  A
C626        C631   1.458       .  S
C627        C628   1.439       .  A
C627        C634   1.438       .  S
C628        C629   1.442       .  A
C629        C630   1.414       .  A
C629        C632   1.444       .  S
C630        C633   1.456       .  S
C631        N638   1.158       .  T
C632        N637   1.156   1_556  T
C633        N635   1.157       .  T
C634        N636   1.153       .  T
C639        C640   1.436       .  A
C639        C644   1.422       .  A
C640        C641   1.416       .  A
C640        C645   1.446       .  S
C641        C642   1.409       .  A
C641        C648   1.456       .  S
C642        C643   1.410       .  A
C643        C644   1.408       .  A
C643        C646   1.454       .  S
C644        C647   1.445       .  S
C645        N652   1.156       .  T
C646        N651   1.158       .  T
C647        N649   1.157   1_565  T
C648        N650   1.158       .  T
C653        C654   1.438       .  A
C653        C658   1.421       .  A
C654        C655   1.418       .  A
C654        C659   1.449       .  S
C655        C656   1.409       .  A
C655        C662   1.455       .  S
C656        C657   1.407       .  A
C657        C658   1.413       .  A
C657        C660   1.457       .  S
C658        C661   1.435       .  S
C659        N666   1.157       .  T
C660        N665   1.158       .  T
C661        N663   1.155   1_455  T
C662        N664   1.158       .  T
C667        C668   1.441       .  A
C667        C672   1.442       .  A
C668        C669   1.417       .  A
C668        C673   1.446       .  S
C669        C670   1.401       .  A
C669        C676   1.457       .  S
C670        C671   1.398       .  A
C671        C672   1.417       .  A
C671        C674   1.458       .  S
C672        C675   1.442       .  S
C673        N680   1.158   1_565  T
C674        N679   1.157       .  T
C675        N677   1.155       .  T
C676        N678   1.158       .  T
C681        C682   1.401       .  A
C681        C686   1.400       .  A
C682        C683   1.417       .  A
C682        C687   1.456       .  S
C683        C684   1.441       .  A
C683        C690   1.447       .  S
C684        C685   1.438       .  A
C685        C686   1.417       .  A
C685        C688   1.445       .  S
C686        C689   1.454       .  S
C687        N694   1.158       .  T
C688        N693   1.157       .  T
C689        N691   1.157       .  T
C690        N692   1.157       .  T
C695        C696   1.436       .  A
C695        C700   1.430       .  A
C696        C697   1.418       .  A
C696        C701   1.444       .  S
C697        C698   1.415       .  A
C697        C704   1.458       .  S
C698        C699   1.418       .  A
C699        C700   1.424       .  A
C699        C702   1.454       .  S
C700        C703   1.445       .  S
C701        N708   1.154       .  T
C702        N707   1.158       .  T
C703        N705   1.156   1_455  T
C704        N706   1.158       .  T
N709        N710   1.320       .  A
N709        N715   1.317       .  A
N709       Mn738   2.203       .  S
N710        C717   1.353       .  A
N711        N713   1.315       .  A
N711        N712   1.320       .  A
N711       Mn727   2.197       .  S
N712        C718   1.352       .  A
N713        N714   1.317       .  A
N713       Mn738   2.181       .  S
N714        C718   1.348       .  A
N715        N716   1.319       .  A
N715       Mn727   2.199       .  S
N716        C717   1.352       .  A
C717        C847   1.485       .  S
C718        C802   1.470       .  S
N719        N725   1.314       .  A
N719        N720   1.320       .  A
N719       Mn749   2.200       .  S
N720        C728   1.354       .  A
N721        N722   1.322       .  A
N721        N723   1.313       .  A
N721       Mn727   2.208       .  S
N722        C729   1.357       .  A
N723        N724   1.318       .  A
N723       Mn749   2.205       .  S
N724        C729   1.356       .  A
N725        N726   1.321       .  A
N725       Mn727   2.203       .  S
N726        C728   1.355       .  A
Mn727      Cl751   2.552       .  S
C728        C833   1.497       .  S
C729        C875   1.518       .  S
N730        N731   1.319       .  A
N730        N736   1.313       .  A
N730       Mn738   2.192       .  S
N731        C739   1.353       .  A
N732        N734   1.315       .  A
N732        N733   1.320       .  A
N732       Mn750   2.205       .  S
N733        C740   1.355       .  A
N734        N735   1.317       .  A
N734       Mn738   2.188       .  S
N735        C740   1.352       .  A
N736        N737   1.317       .  A
N736       Mn750   2.194       .  S
N737        C739   1.354       .  A
Mn738      Cl751   2.535       .  S
C739        C777   1.497       .  S
C740        C819   1.494       .  S
N741        N742   1.322       .  A
N741        N747   1.317       .  A
N741       Mn749   2.220       .  S
N742        C752   1.354       .  A
N743        N744   1.322       .  A
N743        N745   1.313       .  A
N743       Mn750   2.202       .  S
N744        C753   1.357       .  A
N745        N746   1.317       .  A
N745       Mn749   2.193       .  S
N746        C753   1.353       .  A
N747        N748   1.323       .  A
N747       Mn750   2.206       .  S
N748        C752   1.352       .  A
Mn749      Cl751   2.534       .  S
Mn750      Cl751   2.554       .  S
C752        C858   1.487       .  S
C753        C791   1.500       .  S
C754        C774   1.578       .  S
C754       C1113   1.576       .  S
C754        C940   1.505       .  S
C754        C949   1.489       .  S
C755        C788   1.575       .  S
C755        C759   1.559   1_545  S
C755        C946   1.517       .  S
C755        C950   1.512       .  S
C756        C805   1.578       .  S
C756       C1112   1.551       .  S
C756        C939   1.521       .  S
C756        C944   1.500       .  S
C757        C830   1.575       .  S
C757        C758   1.544   1_545  S
C757        C945   1.493       .  S
C757        C947   1.523       .  S
C758       C1110   1.551       .  S
C759       C1108   1.576       .  S
C760        C816   1.566       .  S
C760        C763   1.510       .  S
C760       C1119   1.556       .  S
C760        C772   1.479       .  S
C761        C844   1.586       .  S
C761        C762   1.525       .  S
C761       C1120   1.550       .  S
C761        C767   1.507       .  S
C762        C933   1.521   1_554  S
C763        C931   1.505   1_554  S
C764        C872   1.581       .  S
C764        C766   1.571       .  S
C764        C768   1.485       .  S
C764        C770   1.519       .  S
C765       C1114   1.556       .  S
C765        C771   1.551   1_565  S
C766       C1115   1.550   1_545  S
C767        C933   1.500   1_554  S
C767       C1122   1.312       .  D
C768        C934   1.493   1_554  S
C768       C1121   1.312   1_545  D
C769        C932   1.517   1_554  S
C769        C771   1.524       .  S
C770        C934   1.523   1_554  S
C771        C861   1.581       .  S
C771        C773   1.499   1_554  S
C772        C931   1.489   1_554  S
C772       C1127   1.315   1_554  D
C773        C932   1.512       .  S
C773       C1126   1.315   1_546  D
C774        C775   1.424       .  A
C774        C779   1.450       .  A
C775        C776   1.412       .  A
C775        C780   1.435       .  S
C776        C777   1.408       .  A
C776        C783   1.457       .  S
C777        C778   1.410       .  A
C778        C779   1.417       .  A
C778        C781   1.456       .  S
C779        C782   1.455       .  S
C780        N787   1.154   1_655  T
C781        N786   1.157       .  T
C782        N784   1.158       .  T
C783        N785   1.158       .  T
C788        C789   1.440       .  A
C788        C793   1.427       .  A
C789        C790   1.420       .  A
C789        C794   1.449       .  S
C790        C791   1.411       .  A
C790        C797   1.454       .  S
C791        C792   1.411       .  A
C792        C793   1.411       .  A
C792        C795   1.458       .  S
C793        C796   1.442       .  S
C794        N801   1.157       .  T
C795        N800   1.158       .  T
C796        N798   1.157   1_545  T
C797        N799   1.158       .  T
C802        C803   1.395       .  A
C802        C807   1.395       .  A
C803        C804   1.412       .  A
C803        C808   1.458       .  S
C804        C805   1.439       .  A
C804        C811   1.438       .  S
C805        C806   1.442       .  A
C806        C807   1.414       .  A
C806        C809   1.444       .  S
C807        C810   1.456       .  S
C808        N815   1.158       .  T
C809        N814   1.156       .  T
C810        N812   1.157       .  T
C811        N813   1.153       .  T
C816        C817   1.436       .  A
C816        C821   1.422       .  A
C817        C818   1.416       .  A
C817        C822   1.446       .  S
C818        C819   1.409       .  A
C818        C825   1.456       .  S
C819        C820   1.410       .  A
C820        C821   1.408       .  A
C820        C823   1.454       .  S
C821        C824   1.445       .  S
C822        N829   1.156       .  T
C823        N828   1.158       .  T
C824        N826   1.157       .  T
C825        N827   1.158       .  T
C830        C831   1.438       .  A
C830        C835   1.421       .  A
C831        C832   1.418       .  A
C831        C836   1.449       .  S
C832        C833   1.409       .  A
C832        C839   1.455       .  S
C833        C834   1.407       .  A
C834        C835   1.413       .  A
C834        C837   1.457       .  S
C835        C838   1.435       .  S
C836        N843   1.157       .  T
C837        N842   1.158       .  T
C838        N840   1.155       .  T
C839        N841   1.158       .  T
C844        C845   1.441       .  A
C844        C849   1.442       .  A
C845        C846   1.417       .  A
C845        C850   1.446       .  S
C846        C847   1.401       .  A
C846        C853   1.457       .  S
C847        C848   1.398       .  A
C848        C849   1.417       .  A
C848        C851   1.458       .  S
C849        C852   1.442       .  S
C850        N857   1.158       .  T
C851        N856   1.157       .  T
C852        N854   1.155       .  T
C853        N855   1.158       .  T
C858        C859   1.401       .  A
C858        C863   1.400       .  A
C859        C860   1.417       .  A
C859        C864   1.456       .  S
C860        C861   1.441       .  A
C860        C867   1.447       .  S
C861        C862   1.438       .  A
C862        C863   1.417       .  A
C862        C865   1.445       .  S
C863        C866   1.454       .  S
C864        N871   1.158       .  T
C865        N870   1.157   1_554  T
C866        N868   1.157       .  T
C867        N869   1.157   1_545  T
C872        C873   1.436       .  A
C872        C877   1.430       .  A
C873        C874   1.418       .  A
C873        C878   1.444       .  S
C874        C875   1.415       .  A
C874        C881   1.458       .  S
C875        C876   1.418       .  A
C876        C877   1.424       .  A
C876        C879   1.454       .  S
C877        C880   1.445       .  S
C878        N885   1.154   1_545  T
C879        N884   1.158       .  T
C880        N882   1.156       .  T
C881        N883   1.158       .  T
N886        N887   1.320       .  A
N886        N892   1.317       .  A
N886       Mn915   2.203       .  S
N887        C894   1.353       .  A
N888        N890   1.315       .  A
N888        N889   1.320       .  A
N888       Mn904   2.197       .  S
N889        C895   1.352       .  A
N890        N891   1.317       .  A
N890       Mn915   2.181       .  S
N891        C895   1.348       .  A
N892        N893   1.319       .  A
N892       Mn904   2.199       .  S
N893        C894   1.352       .  A
C894       C1024   1.485       .  S
C895        C979   1.470       .  S
N896        N902   1.314       .  A
N896        N897   1.320       .  A
N896       Mn926   2.200       .  S
N897        C905   1.354       .  A
N898        N899   1.322       .  A
N898        N900   1.313       .  A
N898       Mn904   2.208       .  S
N899        C906   1.357       .  A
N900        N901   1.318       .  A
N900       Mn926   2.205       .  S
N901        C906   1.356       .  A
N902        N903   1.321       .  A
N902       Mn904   2.203       .  S
N903        C905   1.355       .  A
Mn904      Cl928   2.552       .  S
C905       C1010   1.497       .  S
C906       C1052   1.518       .  S
N907        N908   1.319       .  A
N907        N913   1.313       .  A
N907       Mn915   2.192       .  S
N908        C916   1.353       .  A
N909        N911   1.315       .  A
N909        N910   1.320       .  A
N909       Mn927   2.205       .  S
N910        C917   1.355       .  A
N911        N912   1.317       .  A
N911       Mn915   2.188       .  S
N912        C917   1.352       .  A
N913        N914   1.317       .  A
N913       Mn927   2.194       .  S
N914        C916   1.354       .  A
Mn915      Cl928   2.535       .  S
C916        C954   1.497       .  S
C917        C996   1.494       .  S
N918        N919   1.322       .  A
N918        N924   1.317       .  A
N918       Mn926   2.220       .  S
N919        C929   1.354       .  A
N920        N921   1.322       .  A
N920        N922   1.313       .  A
N920       Mn927   2.202       .  S
N921        C930   1.357       .  A
N922        N923   1.317       .  A
N922       Mn926   2.193       .  S
N923        C930   1.353       .  A
N924        N925   1.323       .  A
N924       Mn927   2.206       .  S
N925        C929   1.352       .  A
Mn926      Cl928   2.534       .  S
Mn927      Cl928   2.554       .  S
C929       C1035   1.487       .  S
C930        C968   1.500       .  S
C931        C951   1.578       .  S
C931       C1290   1.576       .  S
C932        C965   1.575       .  S
C932        C936   1.559   1_545  S
C933        C982   1.578       .  S
C933       C1289   1.551       .  S
C934       C1007   1.575       .  S
C934        C935   1.544   1_545  S
C935       C1287   1.551       .  S
C936       C1285   1.576       .  S
C937        C993   1.566       .  S
C937        C940   1.510       .  S
C937       C1296   1.556       .  S
C937        C949   1.479       .  S
C938       C1021   1.586       .  S
C938        C939   1.525       .  S
C938       C1297   1.550       .  S
C938        C944   1.507       .  S
C941       C1049   1.581       .  S
C941        C943   1.571       .  S
C941        C945   1.485       .  S
C941        C947   1.519       .  S
C942       C1291   1.556       .  S
C942        C948   1.551   1_565  S
C943       C1292   1.550   1_545  S
C944       C1299   1.312       .  D
C945       C1298   1.312   1_545  D
C946        C948   1.524       .  S
C948       C1038   1.581       .  S
C948        C950   1.499       .  S
C949       C1304   1.315       .  D
C950       C1303   1.315   1_545  D
C951        C952   1.424       .  A
C951        C956   1.450       .  A
C952        C953   1.412       .  A
C952        C957   1.435       .  S
C953        C954   1.408       .  A
C953        C960   1.457       .  S
C954        C955   1.410       .  A
C955        C956   1.417       .  A
C955        C958   1.456       .  S
C956        C959   1.455       .  S
C957        N964   1.154   1_655  T
C958        N963   1.157       .  T
C959        N961   1.158       .  T
C960        N962   1.158       .  T
C965        C966   1.440       .  A
C965        C970   1.427       .  A
C966        C967   1.420       .  A
C966        C971   1.449       .  S
C967        C968   1.411       .  A
C967        C974   1.454       .  S
C968        C969   1.411       .  A
C969        C970   1.411       .  A
C969        C972   1.458       .  S
C970        C973   1.442       .  S
C971        N978   1.157       .  T
C972        N977   1.158       .  T
C973        N975   1.157   1_545  T
C974        N976   1.158       .  T
C979        C980   1.395       .  A
C979        C984   1.395       .  A
C980        C981   1.412       .  A
C980        C985   1.458       .  S
C981        C982   1.439       .  A
C981        C988   1.438       .  S
C982        C983   1.442       .  A
C983        C984   1.414       .  A
C983        C986   1.444       .  S
C984        C987   1.456       .  S
C985        N992   1.158       .  T
C986        N991   1.156   1_556  T
C987        N989   1.157       .  T
C988        N990   1.153       .  T
C993        C994   1.436       .  A
C993        C998   1.422       .  A
C994        C995   1.416       .  A
C994        C999   1.446       .  S
C995        C996   1.409       .  A
C995       C1002   1.456       .  S
C996        C997   1.410       .  A
C997        C998   1.408       .  A
C997       C1000   1.454       .  S
C998       C1001   1.445       .  S
C999       N1006   1.156       .  T
C1000      N1005   1.158       .  T
C1001      N1003   1.157       .  T
C1002      N1004   1.158       .  T
C1007      C1008   1.438       .  A
C1007      C1012   1.421       .  A
C1008      C1009   1.418       .  A
C1008      C1013   1.449       .  S
C1009      C1010   1.409       .  A
C1009      C1016   1.455       .  S
C1010      C1011   1.407       .  A
C1011      C1012   1.413       .  A
C1011      C1014   1.457       .  S
C1012      C1015   1.435       .  S
C1013      N1020   1.157       .  T
C1014      N1019   1.158       .  T
C1015      N1017   1.155       .  T
C1016      N1018   1.158       .  T
C1021      C1022   1.441       .  A
C1021      C1026   1.442       .  A
C1022      C1023   1.417       .  A
C1022      C1027   1.446       .  S
C1023      C1024   1.401       .  A
C1023      C1030   1.457       .  S
C1024      C1025   1.398       .  A
C1025      C1026   1.417       .  A
C1025      C1028   1.458       .  S
C1026      C1029   1.442       .  S
C1027      N1034   1.158       .  T
C1028      N1033   1.157       .  T
C1029      N1031   1.155       .  T
C1030      N1032   1.158       .  T
C1035      C1036   1.401       .  A
C1035      C1040   1.400       .  A
C1036      C1037   1.417       .  A
C1036      C1041   1.456       .  S
C1037      C1038   1.441       .  A
C1037      C1044   1.447       .  S
C1038      C1039   1.438       .  A
C1039      C1040   1.417       .  A
C1039      C1042   1.445       .  S
C1040      C1043   1.454       .  S
C1041      N1048   1.158       .  T
C1042      N1047   1.157       .  T
C1043      N1045   1.157       .  T
C1044      N1046   1.157   1_545  T
C1049      C1050   1.436       .  A
C1049      C1054   1.430       .  A
C1050      C1051   1.418       .  A
C1050      C1055   1.444       .  S
C1051      C1052   1.415       .  A
C1051      C1058   1.458       .  S
C1052      C1053   1.418       .  A
C1053      C1054   1.424       .  A
C1053      C1056   1.454       .  S
C1054      C1057   1.445       .  S
C1055      N1062   1.154   1_545  T
C1056      N1061   1.158       .  T
C1057      N1059   1.156       .  T
C1058      N1060   1.158       .  T
N1063      N1064   1.320       .  A
N1063      N1069   1.317       .  A
N1063     Mn1092   2.203       .  S
N1064      C1071   1.353       .  A
N1065      N1067   1.315       .  A
N1065      N1066   1.320       .  A
N1065     Mn1081   2.197       .  S
N1066      C1072   1.352       .  A
N1067      N1068   1.317       .  A
N1067     Mn1092   2.181       .  S
N1068      C1072   1.348       .  A
N1069      N1070   1.319       .  A
N1069     Mn1081   2.199       .  S
N1070      C1071   1.352       .  A
C1071      C1201   1.485       .  S
C1072      C1156   1.470       .  S
N1073      N1079   1.314       .  A
N1073      N1074   1.320       .  A
N1073     Mn1103   2.200       .  S
N1074      C1082   1.354       .  A
N1075      N1076   1.322       .  A
N1075      N1077   1.313       .  A
N1075     Mn1081   2.208       .  S
N1076      C1083   1.357       .  A
N1077      N1078   1.318       .  A
N1077     Mn1103   2.205       .  S
N1078      C1083   1.356       .  A
N1079      N1080   1.321       .  A
N1079     Mn1081   2.203       .  S
N1080      C1082   1.355       .  A
Mn1081    Cl1105   2.552       .  S
C1082      C1187   1.497       .  S
C1083      C1229   1.518       .  S
N1084      N1085   1.319       .  A
N1084      N1090   1.313       .  A
N1084     Mn1092   2.192       .  S
N1085      C1093   1.353       .  A
N1086      N1088   1.315       .  A
N1086      N1087   1.320       .  A
N1086     Mn1104   2.205       .  S
N1087      C1094   1.355       .  A
N1088      N1089   1.317       .  A
N1088     Mn1092   2.188       .  S
N1089      C1094   1.352       .  A
N1090      N1091   1.317       .  A
N1090     Mn1104   2.194       .  S
N1091      C1093   1.354       .  A
Mn1092    Cl1105   2.535       .  S
C1093      C1131   1.497       .  S
C1094      C1173   1.494       .  S
N1095      N1096   1.322       .  A
N1095      N1101   1.317       .  A
N1095     Mn1103   2.220       .  S
N1096      C1106   1.354       .  A
N1097      N1098   1.322       .  A
N1097      N1099   1.313       .  A
N1097     Mn1104   2.202       .  S
N1098      C1107   1.357       .  A
N1099      N1100   1.317       .  A
N1099     Mn1103   2.193       .  S
N1100      C1107   1.353       .  A
N1101      N1102   1.323       .  A
N1101     Mn1104   2.206       .  S
N1102      C1106   1.352       .  A
Mn1103    Cl1105   2.534       .  S
Mn1104    Cl1105   2.554       .  S
C1106      C1212   1.487       .  S
C1107      C1145   1.500       .  S
C1108      C1128   1.578       .  S
C1108      C1294   1.505       .  S
C1108      C1303   1.489       .  S
C1109      C1142   1.575       .  S
C1109      C1113   1.559       .  S
C1109      C1300   1.517       .  S
C1109      C1304   1.512       .  S
C1110      C1159   1.578       .  S
C1110      C1293   1.521       .  S
C1110      C1298   1.500       .  S
C1111      C1184   1.575       .  S
C1111      C1112   1.544       .  S
C1111      C1299   1.493       .  S
C1111      C1301   1.523       .  S
C1114      C1170   1.566       .  S
C1114      C1117   1.510       .  S
C1114      C1126   1.479       .  S
C1115      C1198   1.586       .  S
C1115      C1116   1.525       .  S
C1115      C1121   1.507       .  S
C1116      C1287   1.521   1_554  S
C1117      C1285   1.505   1_554  S
C1118      C1226   1.581       .  S
C1118      C1120   1.571       .  S
C1118      C1122   1.485       .  S
C1118      C1124   1.519       .  S
C1119      C1125   1.551       .  S
C1121      C1287   1.500   1_554  S
C1122      C1288   1.493   1_554  S
C1123      C1286   1.517   1_554  S
C1123      C1125   1.524       .  S
C1124      C1288   1.523   1_554  S
C1125      C1215   1.581       .  S
C1125      C1127   1.499   1_554  S
C1126      C1285   1.489   1_554  S
C1127      C1286   1.512       .  S
C1128      C1129   1.424       .  A
C1128      C1133   1.450       .  A
C1129      C1130   1.412       .  A
C1129      C1134   1.435       .  S
C1130      C1131   1.408       .  A
C1130      C1137   1.457       .  S
C1131      C1132   1.410       .  A
C1132      C1133   1.417       .  A
C1132      C1135   1.456       .  S
C1133      C1136   1.455       .  S
C1134      N1141   1.154   1_655  T
C1135      N1140   1.157       .  T
C1136      N1138   1.158       .  T
C1137      N1139   1.158       .  T
C1142      C1143   1.440       .  A
C1142      C1147   1.427       .  A
C1143      C1144   1.420       .  A
C1143      C1148   1.449       .  S
C1144      C1145   1.411       .  A
C1144      C1151   1.454       .  S
C1145      C1146   1.411       .  A
C1146      C1147   1.411       .  A
C1146      C1149   1.458       .  S
C1147      C1150   1.442       .  S
C1148      N1155   1.157       .  T
C1149      N1154   1.158       .  T
C1150      N1152   1.157       .  T
C1151      N1153   1.158       .  T
C1156      C1157   1.395       .  A
C1156      C1161   1.395       .  A
C1157      C1158   1.412       .  A
C1157      C1162   1.458       .  S
C1158      C1159   1.439       .  A
C1158      C1165   1.438       .  S
C1159      C1160   1.442       .  A
C1160      C1161   1.414       .  A
C1160      C1163   1.444       .  S
C1161      C1164   1.456       .  S
C1162      N1169   1.158       .  T
C1163      N1168   1.156       .  T
C1164      N1166   1.157       .  T
C1165      N1167   1.153       .  T
C1170      C1171   1.436       .  A
C1170      C1175   1.422       .  A
C1171      C1172   1.416       .  A
C1171      C1176   1.446       .  S
C1172      C1173   1.409       .  A
C1172      C1179   1.456       .  S
C1173      C1174   1.410       .  A
C1174      C1175   1.408       .  A
C1174      C1177   1.454       .  S
C1175      C1178   1.445       .  S
C1176      N1183   1.156       .  T
C1177      N1182   1.158       .  T
C1178      N1180   1.157   1_565  T
C1179      N1181   1.158       .  T
C1184      C1185   1.438       .  A
C1184      C1189   1.421       .  A
C1185      C1186   1.418       .  A
C1185      C1190   1.449       .  S
C1186      C1187   1.409       .  A
C1186      C1193   1.455       .  S
C1187      C1188   1.407       .  A
C1188      C1189   1.413       .  A
C1188      C1191   1.457       .  S
C1189      C1192   1.435       .  S
C1190      N1197   1.157       .  T
C1191      N1196   1.158       .  T
C1192      N1194   1.155       .  T
C1193      N1195   1.158       .  T
C1198      C1199   1.441       .  A
C1198      C1203   1.442       .  A
C1199      C1200   1.417       .  A
C1199      C1204   1.446       .  S
C1200      C1201   1.401       .  A
C1200      C1207   1.457       .  S
C1201      C1202   1.398       .  A
C1202      C1203   1.417       .  A
C1202      C1205   1.458       .  S
C1203      C1206   1.442       .  S
C1204      N1211   1.158   1_565  T
C1205      N1210   1.157       .  T
C1206      N1208   1.155       .  T
C1207      N1209   1.158       .  T
C1212      C1213   1.401       .  A
C1212      C1217   1.400       .  A
C1213      C1214   1.417       .  A
C1213      C1218   1.456       .  S
C1214      C1215   1.441       .  A
C1214      C1221   1.447       .  S
C1215      C1216   1.438       .  A
C1216      C1217   1.417       .  A
C1216      C1219   1.445       .  S
C1217      C1220   1.454       .  S
C1218      N1225   1.158       .  T
C1219      N1224   1.157   1_554  T
C1220      N1222   1.157       .  T
C1221      N1223   1.157       .  T
C1226      C1227   1.436       .  A
C1226      C1231   1.430       .  A
C1227      C1228   1.418       .  A
C1227      C1232   1.444       .  S
C1228      C1229   1.415       .  A
C1228      C1235   1.458       .  S
C1229      C1230   1.418       .  A
C1230      C1231   1.424       .  A
C1230      C1233   1.454       .  S
C1231      C1234   1.445       .  S
C1232      N1239   1.154       .  T
C1233      N1238   1.158       .  T
C1234      N1236   1.156       .  T
C1235      N1237   1.158       .  T
N1240      N1241   1.320       .  A
N1240      N1246   1.317       .  A
N1240     Mn1269   2.203       .  S
N1241      C1248   1.353       .  A
N1242      N1244   1.315       .  A
N1242      N1243   1.320       .  A
N1242     Mn1258   2.197       .  S
N1243      C1249   1.352       .  A
N1244      N1245   1.317       .  A
N1244     Mn1269   2.181       .  S
N1245      C1249   1.348       .  A
N1246      N1247   1.319       .  A
N1246     Mn1258   2.199       .  S
N1247      C1248   1.352       .  A
C1248      C1378   1.485       .  S
C1249      C1333   1.470       .  S
N1250      N1256   1.314       .  A
N1250      N1251   1.320       .  A
N1250     Mn1280   2.200       .  S
N1251      C1259   1.354       .  A
N1252      N1253   1.322       .  A
N1252      N1254   1.313       .  A
N1252     Mn1258   2.208       .  S
N1253      C1260   1.357       .  A
N1254      N1255   1.318       .  A
N1254     Mn1280   2.205       .  S
N1255      C1260   1.356       .  A
N1256      N1257   1.321       .  A
N1256     Mn1258   2.203       .  S
N1257      C1259   1.355       .  A
Mn1258    Cl1282   2.552       .  S
C1259      C1364   1.497       .  S
C1260      C1406   1.518       .  S
N1261      N1262   1.319       .  A
N1261      N1267   1.313       .  A
N1261     Mn1269   2.192       .  S
N1262      C1270   1.353       .  A
N1263      N1265   1.315       .  A
N1263      N1264   1.320       .  A
N1263     Mn1281   2.205       .  S
N1264      C1271   1.355       .  A
N1265      N1266   1.317       .  A
N1265     Mn1269   2.188       .  S
N1266      C1271   1.352       .  A
N1267      N1268   1.317       .  A
N1267     Mn1281   2.194       .  S
N1268      C1270   1.354       .  A
Mn1269    Cl1282   2.535       .  S
C1270      C1308   1.497       .  S
C1271      C1350   1.494       .  S
N1272      N1273   1.322       .  A
N1272      N1278   1.317       .  A
N1272     Mn1280   2.220       .  S
N1273      C1283   1.354       .  A
N1274      N1275   1.322       .  A
N1274      N1276   1.313       .  A
N1274     Mn1281   2.202       .  S
N1275      C1284   1.357       .  A
N1276      N1277   1.317       .  A
N1276     Mn1280   2.193       .  S
N1277      C1284   1.353       .  A
N1278      N1279   1.323       .  A
N1278     Mn1281   2.206       .  S
N1279      C1283   1.352       .  A
Mn1280    Cl1282   2.534       .  S
Mn1281    Cl1282   2.554       .  S
C1283      C1389   1.487       .  S
C1284      C1322   1.500       .  S
C1285      C1305   1.578       .  S
C1286      C1319   1.575       .  S
C1286      C1290   1.559       .  S
C1287      C1336   1.578       .  S
C1288      C1361   1.575       .  S
C1288      C1289   1.544       .  S
C1291      C1347   1.566       .  S
C1291      C1294   1.510       .  S
C1291      C1303   1.479       .  S
C1292      C1375   1.586       .  S
C1292      C1293   1.525       .  S
C1292      C1298   1.507       .  S
C1295      C1403   1.581       .  S
C1295      C1297   1.571       .  S
C1295      C1299   1.485       .  S
C1295      C1301   1.519       .  S
C1296      C1302   1.551       .  S
C1300      C1302   1.524       .  S
C1302      C1392   1.581       .  S
C1302      C1304   1.499       .  S
C1305      C1306   1.424       .  A
C1305      C1310   1.450       .  A
C1306      C1307   1.412       .  A
C1306      C1311   1.435       .  S
C1307      C1308   1.408       .  A
C1307      C1314   1.457       .  S
C1308      C1309   1.410       .  A
C1309      C1310   1.417       .  A
C1309      C1312   1.456       .  S
C1310      C1313   1.455       .  S
C1311      N1318   1.154   1_655  T
C1312      N1317   1.157       .  T
C1313      N1315   1.158       .  T
C1314      N1316   1.158       .  T
C1319      C1320   1.440       .  A
C1319      C1324   1.427       .  A
C1320      C1321   1.420       .  A
C1320      C1325   1.449       .  S
C1321      C1322   1.411       .  A
C1321      C1328   1.454       .  S
C1322      C1323   1.411       .  A
C1323      C1324   1.411       .  A
C1323      C1326   1.458       .  S
C1324      C1327   1.442       .  S
C1325      N1332   1.157       .  T
C1326      N1331   1.158       .  T
C1327      N1329   1.157       .  T
C1328      N1330   1.158       .  T
C1333      C1334   1.395       .  A
C1333      C1338   1.395       .  A
C1334      C1335   1.412       .  A
C1334      C1339   1.458       .  S
C1335      C1336   1.439       .  A
C1335      C1342   1.438       .  S
C1336      C1337   1.442       .  A
C1337      C1338   1.414       .  A
C1337      C1340   1.444       .  S
C1338      C1341   1.456       .  S
C1339      N1346   1.158       .  T
C1340      N1345   1.156   1_556  T
C1341      N1343   1.157       .  T
C1342      N1344   1.153       .  T
C1347      C1348   1.436       .  A
C1347      C1352   1.422       .  A
C1348      C1349   1.416       .  A
C1348      C1353   1.446       .  S
C1349      C1350   1.409       .  A
C1349      C1356   1.456       .  S
C1350      C1351   1.410       .  A
C1351      C1352   1.408       .  A
C1351      C1354   1.454       .  S
C1352      C1355   1.445       .  S
C1353      N1360   1.156       .  T
C1354      N1359   1.158       .  T
C1355      N1357   1.157   1_565  T
C1356      N1358   1.158       .  T
C1361      C1362   1.438       .  A
C1361      C1366   1.421       .  A
C1362      C1363   1.418       .  A
C1362      C1367   1.449       .  S
C1363      C1364   1.409       .  A
C1363      C1370   1.455       .  S
C1364      C1365   1.407       .  A
C1365      C1366   1.413       .  A
C1365      C1368   1.457       .  S
C1366      C1369   1.435       .  S
C1367      N1374   1.157       .  T
C1368      N1373   1.158       .  T
C1369      N1371   1.155       .  T
C1370      N1372   1.158       .  T
C1375      C1376   1.441       .  A
C1375      C1380   1.442       .  A
C1376      C1377   1.417       .  A
C1376      C1381   1.446       .  S
C1377      C1378   1.401       .  A
C1377      C1384   1.457       .  S
C1378      C1379   1.398       .  A
C1379      C1380   1.417       .  A
C1379      C1382   1.458       .  S
C1380      C1383   1.442       .  S
C1381      N1388   1.158   1_565  T
C1382      N1387   1.157       .  T
C1383      N1385   1.155       .  T
C1384      N1386   1.158       .  T
C1389      C1390   1.401       .  A
C1389      C1394   1.400       .  A
C1390      C1391   1.417       .  A
C1390      C1395   1.456       .  S
C1391      C1392   1.441       .  A
C1391      C1398   1.447       .  S
C1392      C1393   1.438       .  A
C1393      C1394   1.417       .  A
C1393      C1396   1.445       .  S
C1394      C1397   1.454       .  S
C1395      N1402   1.158       .  T
C1396      N1401   1.157       .  T
C1397      N1399   1.157       .  T
C1398      N1400   1.157       .  T
C1403      C1404   1.436       .  A
C1403      C1408   1.430       .  A
C1404      C1405   1.418       .  A
C1404      C1409   1.444       .  S
C1405      C1406   1.415       .  A
C1405      C1412   1.458       .  S
C1406      C1407   1.418       .  A
C1407      C1408   1.424       .  A
C1407      C1410   1.454       .  S
C1408      C1411   1.445       .  S
C1409      N1416   1.154       .  T
C1410      N1415   1.158       .  T
C1411      N1413   1.156       .  T
C1412      N1414   1.158       .  T
