geometry optimzed in LAMMPS
_audit_creation_date              2020-12-01 
_audit_creation_method            'lammps2cif' 
_symmetry_space_group_name_H-M    'P1' 
_symmetry_Int_Tables_number       1 
_symmetry_cell_setting            triclinic 
loop_ 
_symmetry_equiv_pos_as_xyz 
  x,y,z 
_cell_length_a                    44.03809545 
_cell_length_b                    44.172042078039986 
_cell_length_c                    43.50963855460563 
_cell_angle_alpha                 88.99350848945464 
_cell_angle_beta                  92.62236600068717 
_cell_angle_gamma                 89.83575203023182 
loop_ 
_atom_site_label 
_atom_site_type_symbol 
_atom_site_fract_x 
_atom_site_fract_y 
_atom_site_fract_z 
_atom_site_charge 
C1          C  0.38422511  0.37729176  0.38071691    -0.02100
C2          C  0.12374639  0.13736028  0.13009183    -0.02100
N3          N  0.05190458  0.49574719  0.44902448    -0.05800
N4          N  0.07441800  0.48488150  0.43341097    -0.57900
N5          N  0.50403144  0.05407301  0.44218590    -0.05400
N6          N  0.49276762  0.07986708  0.43114599    -0.60000
N7          N  0.03812146  0.05653072  0.46716170    -0.05000
N8          N  0.04636199  0.08524858  0.46790243    -0.57900
N9          N  0.02577444  0.49059519  0.43402111    -0.04700
N10         N  0.52519555  0.48145681  0.41104062    -0.60400
C11         C  0.06032023  0.47244783  0.40842501     0.96400
C12         C  0.02374911  0.09937345  0.45132551     0.96200
N13         N  0.42704653  0.02783192  0.48341139    -0.05900
N14         N  0.41030705  0.04649595  0.99910851    -0.58500
N15         N  0.45586322  0.47116580  0.45201942    -0.04100
N16         N  0.44486943  0.45387022  0.42921182    -0.59700
N17         N  0.44494757  0.46230083  0.47832939    -0.06000
N18         N  0.42667024  0.43872759  0.47387037    -0.58700
N19         N  0.43907478  0.03472828  0.45713038    -0.03700
N20         N  0.42861059  0.06097598  0.44631479    -0.59800
Mn21       Mn  0.47912319  0.01069199  0.44216398     1.18400
C22         C  0.40906481  0.06957824  0.46743136     0.98500
C23         C  0.42675537  0.43325384  0.44316427     0.99200
N24         N  0.06960593  0.05158224  0.03076756    -0.06000
N25         N  0.08889019  0.07404401  0.03641639    -0.62300
N26         N  0.06168724  0.47784297  0.04072140    -0.04800
N27         N  0.07427600  0.45241739  0.05102409    -0.63000
N28         N  0.07318443  0.48690174  0.51856174    -0.05500
N29         N  0.09234723  0.46516105  0.51186544    -0.62600
N30         N  0.05433326  0.04523769  0.05536399    -0.04400
N31         N  0.06348598  0.06317498  0.07839465    -0.63300
Mn32       Mn  0.05854344  0.01899027  0.49412332     1.10700
C33         C  0.08503879  0.08141820  0.06616322     0.99700
C34         C  0.09324416  0.44521808  0.02898164     0.99800
N35         N  0.47173618  0.45688146  0.04041326    -0.05500
N36         N  0.46602296  0.42761796  0.03818822    -0.60900
N37         N  0.48124824  0.02189477  0.07296542    -0.04800
N38         N  0.47779491  0.03533831  0.09936096    -0.57600
N39         N  0.45465908  0.01631497  0.05910544    -0.06100
N40         N  0.43264954  0.02610272  0.07598716    -0.60500
N41         N  0.49733915  0.46132300  0.05672239    -0.05100
N42         N  0.01241591  0.42839072  0.06802397    -0.57600
Mn43       Mn  0.44928598  0.49397664  0.01431679     1.20200
Mn44       Mn  0.02154858  0.49863599  0.05842193     1.10100
Cl45       Cl  0.49952565  0.00657241  0.49800137    -0.85600
C46         C  0.48966578  0.41475204  0.05437660     0.96700
C47         C  0.44748057  0.03835264  0.10059395     0.96500
N48         N  0.31002560  0.21284041  0.51931111    -0.05800
N49         N  0.32469070  0.18834329  0.51172601    -0.57900
N50         N  0.29838316  0.26666255  0.06107155    -0.05400
N51         N  0.30508521  0.28260114  0.08579024    -0.60000
N52         N  0.28364315  0.24186229  0.06872732    -0.05000
N53         N  0.28024902  0.24044724  0.09869429    -0.57900
N54         N  0.32443841  0.23739006  0.51018455    -0.04700
N55         N  0.34936594  0.22972225  0.49618989    -0.60400
C56         C  0.34896561  0.19906601  0.49756622     0.96400
C57         C  0.29335309  0.26617407  0.10878346     0.96200
N58         N  0.25993351  0.33296207  0.00477978    -0.05900
N59         N  0.24934077  0.35903289  0.01427410    -0.58500
N60         N  0.31110420  0.30060590  0.46917042    -0.04100
N61         N  0.33502210  0.31299316  0.45565977    -0.59700
N62         N  0.28592289  0.30783295  0.45314600    -0.06000
N63         N  0.29232232  0.32461413  0.42870630    -0.58700
N64         N  0.28425475  0.32468764  0.02143302    -0.03700
N65         N  0.29084555  0.34488462  0.04274663    -0.59800
Mn66       Mn  0.30613777  0.28101115  0.01296230     1.18400
C67         C  0.26896412  0.36619346  0.03781151     0.98500
C68         C  0.32300660  0.32771216  0.42988400     0.99200
N69         N  0.22044243  0.20751768  0.05547942    -0.06000
N70         N  0.21408204  0.19033515  0.07960101    -0.62300
N71         N  0.22319039  0.18982490  0.48809127    -0.04800
N72         N  0.21610868  0.16908168  0.46749578    -0.63000
N73         N  0.24751722  0.18168056  0.50483751    -0.05500
N74         N  0.25764093  0.15514010  0.49605002    -0.62600
N75         N  0.19527853  0.21481089  0.03946333    -0.04400
N76         N  0.17137467  0.20215397  0.05281530    -0.63300
Mn77       Mn  0.26585396  0.21014837  0.03445476     1.10700
C78         C  0.18343544  0.18719088  0.07844674     0.99700
C79         C  0.23770487  0.14758433  0.47288258     0.99800
N80         N  0.22275664  0.27294668  0.44030472    -0.05500
N81         N  0.22482788  0.27507680  0.41019452    -0.60900
N82         N  0.18257248  0.27798053  0.99868859    -0.04800
N83         N  0.15707933  0.28549664  0.01165523    -0.57600
N84         N  0.19729281  0.30252421  0.99009876    -0.06100
N85         N  0.18229514  0.32696596  0.99714795    -0.60500
N86         N  0.20839205  0.24793048  0.44802222    -0.05100
N87         N  0.20063827  0.23256740  0.42318333    -0.57600
Mn88       Mn  0.24045800  0.30488927  0.47444165     1.20200
Mn89       Mn  0.20103506  0.23343766  0.49620036     1.10100
Cl90       Cl  0.25353045  0.25675401  0.00144885    -0.85600
C91         C  0.21138331  0.24954518  0.40004238     0.96700
C92         C  0.15758565  0.31609193  0.01043950     0.96500
N93         N  0.43794307  0.26625150  0.20080383    -0.05800
N94         N  0.40996264  0.25724594  0.19398784    -0.57900
N95         N  0.49913036  0.30705189  0.18612550    -0.05400
N96         N  0.01118804  0.31474466  0.17347777    -0.60000
N97         N  0.49971810  0.28020535  0.17349214    -0.05000
N98         N  0.01482518  0.26840753  0.15415143    -0.57900
N99         N  0.43749952  0.29282732  0.21407684    -0.04700
N100        N  0.40933277  0.30240747  0.21658098    -0.60400
C101        C  0.39259177  0.27981865  0.20424389     0.96400
C102        C  0.01822508  0.29833533  0.14891212     0.96200
N103        N  0.03833166  0.31473305  0.28254727    -0.05900
N104        N  0.06640042  0.32471142  0.28608807    -0.58500
N105        N  0.45874834  0.32114320  0.27745543    -0.04100
N106        N  0.43495931  0.33795499  0.28408773    -0.59700
N107        N  0.47168938  0.30946880  0.30285031    -0.06000
N108        N  0.45691048  0.31862333  0.32728797    -0.58700
N109        N  0.02585417  0.32425094  0.25610856    -0.03700
N110        N  0.04539909  0.34082659  0.24095431    -0.59800
Mn111      Mn  0.47908934  0.31446132  0.23132877     1.18400
C112        C  0.07031718  0.34124709  0.26032014     0.98500
C113        C  0.43365182  0.33642695  0.31524776     0.99200
N114        N  0.03300733  0.20167711  0.20528048    -0.06000
N115        N  0.04876988  0.19197762  0.18181565    -0.62300
N116        N  0.47494745  0.18990258  0.24310203    -0.04800
N117        N  0.45588517  0.17229437  0.25769125    -0.63000
N118        N  0.46137800  0.20175374  0.21817719    -0.05500
N119        N  0.43310662  0.19234143  0.21503615    -0.62600
N120        N  0.04562594  0.19175818  0.23156774    -0.04400
N121        N  0.07024503  0.17543318  0.22640789    -0.63300
Mn122      Mn  0.48038675  0.24051923  0.19457896     1.10700
C123        C  0.07230438  0.17560132  0.19524980     0.99700
C124        C  0.43016110  0.17371722  0.23948458     0.99800
N125        N  0.00093819  0.23824535  0.33227370    -0.05500
N126        N  0.49032283  0.23938693  0.34820270    -0.60900
N127        N  0.06408017  0.22482950  0.29368175    -0.04800
N128        N  0.09252575  0.21561342  0.29293925    -0.57600
N129        N  0.06249341  0.25210215  0.30539070    -0.06100
N130        N  0.09006114  0.26197240  0.31278971    -0.60500
N131        N  0.00302908  0.21072557  0.32124101    -0.05100
N132        N  0.49322695  0.19403209  0.32653187    -0.57600
Mn133      Mn  0.01895465  0.27734354  0.30847254     1.20200
Mn134      Mn  0.02379476  0.20109164  0.27670982     1.10100
Cl135      Cl  0.49840272  0.26150442  0.24633276    -0.85600
C136        C  0.48706896  0.20935233  0.35212407     0.96700
C137        C  0.10830512  0.23914885  0.30458795     0.96500
N138        N  0.29153534  0.45421000  0.30431962    -0.05800
N139        N  0.30271338  0.43110634  0.32180718    -0.57900
N140        N  0.27555822  0.02680197  0.32842221    -0.05400
N141        N  0.27877886  0.04779298  0.34951468    -0.60000
N142        N  0.25347082  0.00816570  0.33489848    -0.05000
N143        N  0.24100902  0.01614349  0.36067182    -0.57900
N144        N  0.31360957  0.47325399  0.29848332    -0.04700
N145        N  0.33964700  0.46342927  0.31167877    -0.60400
C146        C  0.33319253  0.43671110  0.32575909     0.96400
C147        C  0.25726584  0.04073304  0.36953167     0.96200
N148        N  0.27518531  0.07829946  0.24631023    -0.05900
N149        N  0.28105985  0.10706042  0.24023252    -0.58500
N150        N  0.32747868  0.51643515  0.24008607    -0.04100
N151        N  0.35702589  0.51288261  0.23740192    -0.59700
N152        N  0.31414559  0.52383487  0.21320950    -0.06000
N153        N  0.33425092  0.52503773  0.19183425    -0.58700
N154        N  0.28897922  0.06994886  0.27274045    -0.03700
N155        N  0.30360668  0.09302867  0.28504046    -0.59800
Mn156      Mn  0.29980233  0.02249242  0.28595170     1.18400
C157        C  0.29826623  0.11608921  0.26490553     0.98500
C158        C  0.36057378  0.51776268  0.20708598     0.99200
N159        N  0.19323818  0.98832645  0.29911159    -0.06000
N160        N  0.17391115  0.98368306  0.32083409    -0.62300
N161        N  0.21468914  0.44726769  0.23578348    -0.04800
N162        N  0.19946505  0.42477372  0.22308177    -0.63000
N163        N  0.22789959  0.43829253  0.26236355    -0.05500
N164        N  0.22078126  0.40973753  0.26813974    -0.62600
N165        N  0.17860349  0.99599928  0.27292730    -0.04400
N166        N  0.14894414  0.99607575  0.27652542    -0.63300
Mn167      Mn  0.24277797  0.47173460  0.29719565     1.10700
C168        C  0.14663621  0.98892857  0.30663289     0.99700
C169        C  0.20360985  0.40146726  0.24311385     0.99800
N170        N  0.25420513  0.50663178  0.17490885    -0.05500
N171        N  0.26686591  0.49797299  0.14946309    -0.60900
N172        N  0.19006344  0.04160112  0.21444208    -0.04800
N173        N  0.16329259  0.05213103  0.20372144    -0.57600
N174        N  0.21176328  0.06063245  0.20732856    -0.06100
N175        N  0.19979698  0.08429284  0.19138087    -0.60500
N176        N  0.23071562  0.48948648  0.18048441    -0.05100
N177        N  0.22676548  0.46880304  0.15919255    -0.57600
Mn178      Mn  0.26065559  0.04429596  0.21219344     1.20200
Mn179      Mn  0.20548079  0.49505124  0.22205952     1.10100
Cl180      Cl  0.25046819  0.00819684  0.25746373    -0.85600
C181        C  0.24927257  0.47450931  0.13992640     0.96700
C182        C  0.16923149  0.07900739  0.18960924     0.96500
C183        C  0.32042667  0.13943123  0.26252426    -0.18200
C184        C  0.34466397  0.15128300  0.25951900     0.05900
C185        C  0.37511562  0.15873851  0.25462776     0.07800
C186        C  0.40100691  0.16405195  0.24881507    -0.19000
C187        C  0.09972169  0.35147065  0.25202256    -0.18200
C188        C  0.12581594  0.35783255  0.24793011     0.05900
C189        C  0.15644714  0.36639784  0.24554623     0.07800
C190        C  0.18083981  0.37850164  0.24443344    -0.19000
C191        C  0.25525501  0.45557650  0.11427538    -0.18200
C192        C  0.25905028  0.43715983  0.09459809     0.05900
C193        C  0.26282823  0.41358173  0.07345206     0.07800
C194        C  0.26579360  0.39238208  0.05666432    -0.19000
C195        C  0.25097952  0.05909794  0.39553500    -0.18200
C196        C  0.24689085  0.07689431  0.41572562     0.05900
C197        C  0.24308772  0.09990676  0.43750089     0.07800
C198        C  0.24042942  0.12099672  0.45449764    -0.19000
C199        C  0.14027853  0.23855384  0.31114309    -0.18200
C200        C  0.16547096  0.23885838  0.32272777     0.05900
C201        C  0.18974251  0.24090460  0.34444725     0.07800
C202        C  0.20356923  0.24421011  0.36848850    -0.19000
C203        C  0.36046753  0.28117183  0.19877651    -0.18200
C204        C  0.33526033  0.28055349  0.18723395     0.05900
C205        C  0.31165745  0.27731752  0.16493544     0.07800
C206        C  0.29914723  0.27273500  0.14044524    -0.19000
C207        C  0.39785203  0.09993467  0.46865505    -0.18200
C208        C  0.39086528  0.12610868  0.47098351     0.05900
C209        C  0.38187737  0.15607121  0.47639326     0.07800
C210        C  0.37002465  0.17903564  0.48428215    -0.19000
C211        C  0.10599206  0.41566839  0.02768231    -0.18200
C212        C  0.11327999  0.38950566  0.02767629     0.05900
C213        C  0.12243785  0.35920826  0.02615905     0.07800
C214        C  0.13513447  0.33589817  0.02126770    -0.19000
C215        C  0.11942004  0.97929045  0.32027952    -0.18200
C216        C  0.10123812  0.96899556  0.33726373     0.05900
C217        C  0.08722091  0.46974287  0.35648108     0.07800
C218        C  0.07531386  0.46734976  0.38064635    -0.19000
C219        C  0.38885252  0.52356166  0.19377548    -0.18200
C220        C  0.40728608  0.53234698  0.17636520     0.05900
C221        C  0.42017727  0.04058410  0.15230715     0.08800
C222        C  0.43323210  0.04292339  0.12883399    -0.19000
C223        C  0.01903164  0.31163301  0.11885870    -0.18200
C224        C  0.51696467  0.33848066  0.08947564     0.05900
C225        C  0.50546156  0.35986080  0.06799408     0.07800
C226        C  0.49554574  0.38324120  0.05751864    -0.19000
C227        C  0.02057215  0.13127730  0.44748407    -0.18200
C228        C  0.50221202  0.15624646  0.42432086     0.05900
C229        C  0.49289198  0.17973952  0.40414838     0.07800
C230        C  0.48745945  0.19519745  0.38171274    -0.19000
C231        C  0.14887439  0.12196162  0.15265102    -0.16100
C232        C  0.14477216  0.09677920  0.17082119    -0.31300
H233        H  0.17151303  0.13118857  0.15406486     0.12900
H234        H  0.12212886  0.08728685  0.17110048     0.13500
C235        C  0.09735217  0.15878362  0.17903255    -0.16100
C236        C  0.09948843  0.15588961  0.14782460    -0.31300
H237        H  0.11437777  0.14779764  0.19404305     0.12900
H238        H  0.08179081  0.16682724  0.13344096     0.13500
C239        C  0.16820689  0.16495135  0.10045843    -0.16100
C240        C  0.13793604  0.16037532  0.10584004    -0.31300
H241        H  0.18485932  0.15108682  0.11315450     0.12900
H242        H  0.12172795  0.17382459  0.09175762     0.13500
C243        C  0.10357193  0.10610945  0.08223359    -0.16100
C244        C  0.10509106  0.11173634  0.11305320    -0.31300
H245        H  0.11737510  0.11986298  0.06730840     0.12900
H246        H  0.09155983  0.09704936  0.12739841     0.13500
C247        C  0.40398220  0.40293879  0.39687149    -0.16100
C248        C  0.40704447  0.40879363  0.42776568    -0.31300
H249        H  0.41716120  0.41702178  0.38175808     0.12900
H250        H  0.39408386  0.39514005  0.44338691     0.13500
C251        C  0.33883341  0.34852230  0.40689424    -0.16100
C252        C  0.36913429  0.35572205  0.40543535    -0.31300
H253        H  0.32322591  0.35889506  0.38981636     0.12900
H254        H  0.38456752  0.34494367  0.42253713     0.13500
C255        C  0.35926098  0.39165544  0.35707073    -0.16100
C256        C  0.35580437  0.42183855  0.34927305    -0.31300
H257        H  0.34428601  0.37596522  0.34492602     0.12900
H258        H  0.37191656  0.43758946  0.35948902     0.13500
C259        C  0.40776624  0.35717089  0.36359731    -0.16100
C260        C  0.40967611  0.35389398  0.33239513    -0.31300
H261        H  0.42510534  0.34573586  0.37817833     0.12900
H262        H  0.39300929  0.36576747  0.31747290     0.13500
C263        C  0.38064385  0.37835557  0.87686840    -0.02100
C264        C  0.12563042  0.13581940  0.63040610    -0.02100
N265        N  0.04337905  0.49596209  0.94612909    -0.05800
N266        N  0.06500961  0.48859189  0.92761994    -0.57900
N267        N  0.50233017  0.05276828  0.94685215    -0.05400
N268        N  0.48950100  0.07763903  0.93548583    -0.60000
N269        N  0.04804649  0.05998330  0.96078664    -0.05000
N270        N  0.05590975  0.08882120  0.96243570    -0.57900
N271        N  0.01650293  0.49052899  0.93261712    -0.04700
N272        N  0.52968223  0.47911055  0.90794881    -0.60400
C273        C  0.04986171  0.47810049  0.90233686     0.96400
C274        C  0.03440801  0.10287517  0.94418027     0.96200
N275        N  0.42856136  0.02457289  0.99081057    -0.05900
N276        N  0.40816334  0.04941195  0.49114019    -0.58500
N277        N  0.45611832  0.47216051  0.94641092    -0.04100
N278        N  0.44496499  0.45537486  0.92321395    -0.59700
N279        N  0.44266618  0.46501607  0.97191853    -0.06000
N280        N  0.42222635  0.44343065  0.96641671    -0.58700
N281        N  0.43945264  0.03109296  0.96389465    -0.03700
N282        N  0.42872237  0.05718912  0.95313460    -0.59800
Mn283      Mn  0.47958131  0.00859007  0.94793068     1.18400
C284        C  0.41034613  0.06628872  0.97497869     0.98500
C285        C  0.42393214  0.43694436  0.93603797     0.99200
N286        N  0.06581216  0.04853448  0.53595833    -0.06000
N287        N  0.08640801  0.07001511  0.54111547    -0.62300
N288        N  0.05947328  0.47992448  0.54389368    -0.04800
N289        N  0.06904061  0.45355143  0.55516007    -0.63000
N290        N  0.07198934  0.48569355  0.01389975    -0.05500
N291        N  0.09183332  0.46542309  0.00517208    -0.62600
N292        N  0.05193238  0.04229945  0.56145434    -0.04400
N293        N  0.06285124  0.05954369  0.58428001    -0.63300
Mn294      Mn  0.06585141  0.02194128  0.98930311     1.10700
C295        C  0.08421999  0.07727157  0.57123494     0.99700
C296        C  0.08975971  0.44488764  0.53528311     0.99800
N297        N  0.47755238  0.45611096  0.54531507    -0.05500
N298        N  0.47372627  0.42650868  0.54375999    -0.60900
N299        N  0.47822929  0.02477843  0.56638454    -0.04800
N300        N  0.47456726  0.03818767  0.59273314    -0.57600
N301        N  0.45174235  0.01956388  0.55212275    -0.06100
N302        N  0.42963516  0.02954881  0.56878440    -0.60500
N303        N  0.50347923  0.46244962  0.56023501    -0.05100
N304        N  0.00309313  0.43583947  0.56735510    -0.57600
Mn305      Mn  0.45107405  0.49139672  0.52054987     1.20200
Mn306      Mn  0.01945130  0.50474489  0.55723506     1.10100
Cl307      Cl  0.50125998  0.00508519  0.00325431    -0.85600
C308        C  0.49898451  0.41546344  0.55871057     0.96700
C309        C  0.44428846  0.04155003  0.59364748     0.96500
N310        N  0.30996949  0.21102397  0.01302924    -0.05800
N311        N  0.32484818  0.18653804  0.00586054    -0.57900
N312        N  0.29828702  0.26880173  0.56668415    -0.05400
N313        N  0.30509007  0.28498935  0.59120586    -0.60000
N314        N  0.28363378  0.24406080  0.57471167    -0.05000
N315        N  0.28046638  0.24291697  0.60472449    -0.57900
N316        N  0.32480064  0.23554750  0.00468179    -0.04700
N317        N  0.35029549  0.22794278  0.99168943    -0.60400
C318        C  0.34966042  0.19730472  0.99269464     0.96400
C319        C  0.29355830  0.26877602  0.61445642     0.96200
N320        N  0.25884274  0.33465419  0.51091523    -0.05900
N321        N  0.24842184  0.36079266  0.52046661    -0.58500
N322        N  0.31203185  0.29787790  0.96387387    -0.04100
N323        N  0.33653334  0.30824787  0.94992091    -0.59700
N324        N  0.28722691  0.30502423  0.94721569    -0.06000
N325        N  0.29447404  0.31961754  0.92163940    -0.58700
N326        N  0.28352059  0.32656250  0.52712313    -0.03700
N327        N  0.29048852  0.34689824  0.54818515    -0.59800
Mn328      Mn  0.30568231  0.28304629  0.51839129     1.18400
C329        C  0.26849387  0.36813173  0.54359870     0.98500
C330        C  0.32530801  0.32159418  0.92313770     0.99200
N331        N  0.22016639  0.20979671  0.56204885    -0.06000
N332        N  0.21302851  0.19490249  0.58748755    -0.62300
N333        N  0.22270091  0.18922364  0.98157163    -0.04800
N334        N  0.21531648  0.16880218  0.96079644    -0.63000
N335        N  0.24716533  0.18083363  0.99797132    -0.05500
N336        N  0.25706781  0.15438894  0.98883660    -0.62600
N337        N  0.19535098  0.21661547  0.54527261    -0.04400
N338        N  0.17095998  0.20573495  0.55899531    -0.63300
Mn339      Mn  0.26589097  0.21185820  0.54100101     1.10700
C340        C  0.18224576  0.19243826  0.58575564     0.99700
C341        C  0.23686185  0.14724291  0.96581274     0.99800
N342        N  0.22279980  0.27217543  0.93428669    -0.05500
N343        N  0.22336683  0.27549285  0.90415722    -0.60900
N344        N  0.18190701  0.27868982  0.50438638    -0.04800
N345        N  0.15631850  0.28588306  0.51740637    -0.57600
N346        N  0.19635639  0.30344531  0.49600901    -0.06100
N347        N  0.18107433  0.32769443  0.50317542    -0.60500
N348        N  0.20771494  0.24753781  0.94180780    -0.05100
N349        N  0.19794366  0.23359271  0.91666854    -0.57600
Mn350      Mn  0.24141481  0.30338217  0.96838129     1.20200
Mn351      Mn  0.20084738  0.23259066  0.99023523     1.10100
Cl352      Cl  0.25333137  0.25825026  0.50742637    -0.85600
C353        C  0.20826477  0.25106460  0.89361458     0.96700
C354        C  0.15644054  0.31651851  0.51637559     0.96500
N355        N  0.43938245  0.26811307  0.70432229    -0.05800
N356        N  0.41124898  0.26058584  0.69617050    -0.57900
N357        N  0.50168898  0.30776851  0.69354076    -0.05400
N358        N  0.00076760  0.32264986  0.66726636    -0.60000
N359        N  0.50196933  0.28175796  0.67913903    -0.05000
N360        N  0.00533661  0.27700554  0.64648909    -0.57900
N361        N  0.43944397  0.29335818  0.72010959    -0.04700
N362        N  0.41149227  0.30345590  0.72291878    -0.60400
C363        C  0.39434004  0.28259599  0.70812753     0.96400
C364        C  0.00792411  0.30704509  0.64215288     0.96200
N365        N  0.03016322  0.32061913  0.77630057    -0.05900
N366        N  0.05715230  0.33287017  0.78060892    -0.58500
N367        N  0.46154454  0.31649415  0.78706020    -0.04100
N368        N  0.43917302  0.33345251  0.79780526    -0.59700
N369        N  0.47561595  0.30161193  0.81001257    -0.06000
N370        N  0.46331390  0.30818152  0.83641061    -0.58700
N371        N  0.01691709  0.33036163  0.75032090    -0.03700
N372        N  0.03496502  0.34947525  0.73617998    -0.59800
Mn373      Mn  0.48142199  0.31272460  0.73942506     1.18400
C374        C  0.05968730  0.35107462  0.75581508     0.98500
C375        C  0.44024966  0.32789653  0.82895139     0.99200
N376        N  0.02769255  0.21139112  0.69182313    -0.06000
N377        N  0.04001995  0.20359355  0.66586640    -0.62300
N378        N  0.47248885  0.18773595  0.74044623    -0.04800
N379        N  0.45203134  0.17091769  0.75402304    -0.63000
N380        N  0.45988302  0.20190438  0.71629051    -0.05500
N381        N  0.43093764  0.19490857  0.71266906    -0.62600
N382        N  0.04378730  0.20049522  0.71574276    -0.04400
N383        N  0.06754373  0.18482481  0.70608302    -0.63300
Mn384      Mn  0.48097842  0.24131792  0.69619825     1.10700
C385        C  0.06511395  0.18715342  0.67461459     0.99700
C386        C  0.42649176  0.17533060  0.73598550     0.99800
N387        N  0.00043437  0.23852910  0.82183576    -0.05500
N388        N  0.48653343  0.23022587  0.84736457    -0.60900
N389        N  0.06314386  0.23288645  0.77974875    -0.04800
N390        N  0.09216638  0.22589332  0.77842351    -0.57600
N391        N  0.05967283  0.25892505  0.79367688    -0.06100
N392        N  0.08651641  0.27014397  0.80185623    -0.60500
N393        N  0.00501544  0.21192098  0.80942632    -0.05100
N394        N  0.48684634  0.18604184  0.82310048    -0.57600
Mn395      Mn  0.01452800  0.28049203  0.80021902     1.20200
Mn396      Mn  0.02444277  0.20620485  0.76332728     1.10100
Cl397      Cl  0.49928807  0.25783199  0.74933431    -0.85600
C398        C  0.47964161  0.20068237  0.84885059     0.96700
C399        C  0.10632808  0.24955221  0.79182135     0.96500
N400        N  0.28763850  0.45793182  0.80690727    -0.05800
N401        N  0.29902651  0.43376060  0.82264615    -0.57900
N402        N  0.27746307  0.02573710  0.82358376    -0.05400
N403        N  0.28023330  0.04731897  0.84407324    -0.60000
N404        N  0.25551752  0.00708842  0.83039571    -0.05000
N405        N  0.24266353  0.01555611  0.85571921    -0.57900
N406        N  0.31009842  0.47600505  0.79971833    -0.04700
N407        N  0.33658964  0.46441052  0.80960990    -0.60400
C408        C  0.32991068  0.43799630  0.82389605     0.96400
C409        C  0.25855138  0.04047544  0.86398496     0.96200
N410        N  0.27700968  0.07437761  0.73991230    -0.05900
N411        N  0.28100352  0.10341729  0.73357646    -0.58500
N412        N  0.32569928  0.51907495  0.74300680    -0.04100
N413        N  0.35508928  0.51435846  0.74053170    -0.59700
N414        N  0.31287031  0.52727951  0.71618610    -0.06000
N415        N  0.33316706  0.52795441  0.69497270    -0.58700
N416        N  0.29097221  0.06703751  0.76651995    -0.03700
N417        N  0.30404991  0.09105549  0.77869800    -0.59800
Mn418      Mn  0.30197966  0.02005096  0.78153041     1.18400
C419        C  0.29732370  0.11363145  0.75830544     0.98500
C420        C  0.35907112  0.51946333  0.71035404     0.99200
N421        N  0.19597331  0.98740354  0.79529116    -0.06000
N422        N  0.17690690  0.98495038  0.81749583    -0.62300
N423        N  0.21030169  0.45385693  0.73887480    -0.04800
N424        N  0.19362141  0.43241109  0.72614591    -0.63000
N425        N  0.22238268  0.44438164  0.76577835    -0.05500
N426        N  0.21291585  0.41655814  0.77175936    -0.62600
N427        N  0.18125554  0.99429283  0.76900469    -0.04400
N428        N  0.15173278  0.99587783  0.77293850    -0.63300
Mn429      Mn  0.23920815  0.47726021  0.80050534     1.10700
C430        C  0.14967559  0.99061840  0.80341015     0.99700
C431        C  0.19558392  0.40922660  0.74648785     0.99800
N432        N  0.25301151  0.51147636  0.67806434    -0.05500
N433        N  0.26633048  0.50178907  0.65338516    -0.60900
N434        N  0.19234211  0.03762232  0.70972836    -0.04800
N435        N  0.16557154  0.04863634  0.69963058    -0.57600
N436        N  0.21422660  0.05608429  0.70189613    -0.06100
N437        N  0.20253917  0.07978328  0.68593506    -0.60500
N438        N  0.22915714  0.49479487  0.68355537    -0.05100
N439        N  0.22558148  0.47345246  0.66287210    -0.57600
Mn440      Mn  0.26267011  0.03947528  0.70689763     1.20200
Mn441      Mn  0.20356988  0.50168206  0.72485188     1.10100
Cl442      Cl  0.25276909  0.00483936  0.75317967    -0.85600
C443        C  0.24872727  0.47825177  0.64410628     0.96700
C444        C  0.17194016  0.07506217  0.68488317     0.96500
C445        C  0.31721239  0.13895348  0.75627450    -0.18200
C446        C  0.34040328  0.15280955  0.75368873     0.05900
C447        C  0.37057922  0.16167676  0.74949943     0.07800
C448        C  0.39665552  0.16693611  0.74442215    -0.19000
C449        C  0.08845584  0.36349269  0.74835297    -0.18200
C450        C  0.11479019  0.37008733  0.74620539     0.05900
C451        C  0.14593442  0.37747213  0.74653698     0.07800
C452        C  0.17115223  0.38797844  0.74721963    -0.19000
C453        C  0.25533702  0.45841381  0.61930439    -0.18200
C454        C  0.25950793  0.43961172  0.60006604     0.05900
C455        C  0.26324617  0.41582272  0.57910024     0.07800
C456        C  0.26582106  0.39450804  0.56234543    -0.19000
C457        C  0.25160658  0.05921135  0.88926244    -0.18200
C458        C  0.24665891  0.07702109  0.90904496     0.05900
C459        C  0.24210232  0.09993141  0.93046146     0.07800
C460        C  0.23925091  0.12092773  0.94733897    -0.19000
C461        C  0.13791264  0.24955311  0.80050037    -0.18200
C462        C  0.16212203  0.24853565  0.81422462     0.05900
C463        C  0.18498980  0.24740934  0.83765336     0.07800
C464        C  0.19862601  0.24781310  0.86212470    -0.19000
C465        C  0.36221223  0.28472267  0.70292599    -0.18200
C466        C  0.33680964  0.28415541  0.69185033     0.05900
C467        C  0.31270915  0.28055762  0.67016674     0.07800
C468        C  0.29971686  0.27561082  0.64599921    -0.19000
C469        C  0.39977607  0.09682326  0.97582466    -0.18200
C470        C  0.39351157  0.12331073  0.97573678     0.05900
C471        C  0.38471967  0.15382055  0.97720197     0.07800
C472        C  0.37212424  0.17728946  0.98196664    -0.19000
C473        C  0.10166544  0.41477012  0.53539115    -0.18200
C474        C  0.10959354  0.38872911  0.53515618     0.05900
C475        C  0.12018429  0.35886853  0.53278186     0.07800
C476        C  0.13370348  0.33607827  0.52737750    -0.19000
C477        C  0.12293875  0.98059891  0.81727696    -0.18200
C478        C  0.10714116  0.96822720  0.83520656     0.05900
C479        C  0.07722210  0.48284270  0.85063900     0.07800
C480        C  0.06349506  0.47735001  0.87325742    -0.19000
C481        C  0.38772677  0.52441309  0.69758945    -0.18200
C482        C  0.40720533  0.53252957  0.68109289     0.05900
C483        C  0.41832308  0.04028463  0.64606059     0.08800
C484        C  0.43011641  0.04465064  0.62212858    -0.19000
C485        C  0.00768142  0.32065440  0.61241884    -0.18200
C486        C  0.52611614  0.34163774  0.59881003     0.05900
C487        C  0.51609828  0.36181777  0.57554205     0.07800
C488        C  0.50625520  0.38442386  0.56335343    -0.19000
C489        C  0.03065969  0.13467100  0.94003302    -0.18200
C490        C  0.49279081  0.15244789  0.92436151     0.05900
C491        C  0.48127535  0.17217037  0.90131126     0.07800
C492        C  0.47639770  0.18566640  0.87755873    -0.19000
C493        C  0.15184756  0.11602624  0.64610032    -0.16100
C494        C  0.14756251  0.09460806  0.66852713    -0.31300
H495        H  0.17492135  0.11946993  0.63899579     0.12900
H496        H  0.12438625  0.09031583  0.67485622     0.13500
C497        C  0.08434628  0.17170895  0.65096923    -0.16100
C498        C  0.10955246  0.15384748  0.65614735    -0.31300
H499        H  0.07616085  0.17463234  0.62719265     0.12900
H500        H  0.11805783  0.15090844  0.67984343     0.13500
C501        C  0.16476937  0.17543744  0.61028537    -0.16100
C502        C  0.13912381  0.15819509  0.60572496    -0.31300
H503        H  0.17595920  0.17437636  0.63302366     0.12900
H504        H  0.12890445  0.15811548  0.58253555     0.13500
C505        C  0.10667003  0.09816135  0.58805696    -0.16100
C506        C  0.10178361  0.11414568  0.61409708    -0.31300
H507        H  0.12828949  0.10134038  0.57744002     0.12900
H508        H  0.07957841  0.11203515  0.62380499     0.13500
C509        C  0.40477944  0.40057197  0.89245390    -0.16100
C510        C  0.40105706  0.41612754  0.91914272    -0.31300
H511        H  0.42646712  0.40313142  0.88175956     0.12900
H512        H  0.37997682  0.41237880  0.93062700     0.13500
C513        C  0.34280154  0.33806288  0.89818023    -0.16100
C514        C  0.36845919  0.35552860  0.90199369    -0.31300
H515        H  0.33123611  0.33888590  0.87559004     0.12900
H516        H  0.37920038  0.35590946  0.92495252     0.13500
C517        C  0.35291849  0.39741628  0.86252282    -0.16100
C518        C  0.35502170  0.41822257  0.83911754    -0.31300
H519        H  0.33057191  0.39386918  0.87143556     0.12900
H520        H  0.37763465  0.42251598  0.83113964     0.13500
C521        C  0.39624263  0.36087339  0.85013150    -0.16100
C522        C  0.42196598  0.34324533  0.85375540    -0.31300
H523        H  0.38668243  0.36395238  0.82679852     0.12900
H524        H  0.43098951  0.33974974  0.87723596     0.13500
C525        C  0.37892297  0.87239585  0.37585841    -0.02100
C526        C  0.11831640  0.63269439  0.13140049    -0.02100
N527        N  0.05126003  0.98962030  0.45337722    -0.05800
N528        N  0.07256714  0.97612613  0.43814810    -0.57900
N529        N  0.50213889  0.56093830  0.45081198    -0.05400
N530        N  0.48939842  0.58604418  0.43969871    -0.60000
N531        N  0.03447707  0.56184850  0.46203410    -0.05000
N532        N  0.04054371  0.59114871  0.46246794    -0.57900
N533        N  0.02465762  0.98661722  0.43852720    -0.04700
N534        N  0.52497824  0.97616335  0.40255986    -0.60400
C535        C  0.05727590  0.96433642  0.41353585     0.96400
C536        C  0.01764178  0.60332525  0.44457103     0.96200
N537        N  0.42895456  0.52889382  0.49420635    -0.05900
N538        N  0.41367489  0.55524708  0.99512191    -0.58500
N539        N  0.45228751  0.96712941  0.44397899    -0.04100
N540        N  0.44152565  0.94899176  0.42174134    -0.59700
N541        N  0.44005426  0.95998859  0.47015382    -0.06000
N542        N  0.42111072  0.93689380  0.46623801    -0.58700
N543        N  0.43957068  0.53674027  0.46751712    -0.03700
N544        N  0.42746563  0.56239532  0.45728469    -0.59800
Mn545      Mn  0.48003789  0.51600386  0.45077593     1.18400
C546        C  0.40847418  0.56976703  0.47923354     0.98500
C547        C  0.42216533  0.92976929  0.43602866     0.99200
N548        N  0.05732370  0.55206681  0.03115668    -0.06000
N549        N  0.07682035  0.57457533  0.03642110    -0.62300
N550        N  0.06459423  0.97714516  0.04357627    -0.04800
N551        N  0.07275660  0.95090791  0.05619394    -0.63000
N552        N  0.07489412  0.98002743  0.52213244    -0.05500
N553        N  0.09175102  0.95684082  0.51432628    -0.62600
N554        N  0.04556768  0.54339767  0.05715032    -0.04400
N555        N  0.05673508  0.56003113  0.08031565    -0.63300
Mn556      Mn  0.05616179  0.52539864  0.49001905     1.10700
C557        C  0.07596148  0.58001372  0.06712824     0.99700
C558        C  0.09421858  0.94085188  0.03787784     0.99800
N559        N  0.47403590  0.95128478  0.04421727    -0.05500
N560        N  0.46980355  0.92176627  0.04227756    -0.60900
N561        N  0.48151432  0.52695624  0.07056046    -0.04800
N562        N  0.47793174  0.53995806  0.09710923    -0.57600
N563        N  0.45502485  0.52246171  0.05596980    -0.06100
N564        N  0.43298483  0.53251684  0.07270864    -0.60500
N565        N  0.50002764  0.95706705  0.05925994    -0.05100
N566        N  0.00610611  0.93482834  0.06186730    -0.57600
Mn567      Mn  0.44908052  0.98697222  0.01835573     1.20200
Mn568      Mn  0.02468713  0.00336714  0.05404638     1.10100
Cl569      Cl  0.50260132  0.51174798  0.50574545    -0.85600
C570        C  0.49472410  0.91017411  0.05738240     0.96700
C571        C  0.44773595  0.54383403  0.09788992     0.96500
N572        N  0.30525204  0.71086646  0.51639490    -0.05800
N573        N  0.32115712  0.68699481  0.50944173    -0.57900
N574        N  0.29441588  0.77011848  0.06943512    -0.05400
N575        N  0.30051727  0.78672919  0.09383637    -0.60000
N576        N  0.28099469  0.74471890  0.07771424    -0.05000
N577        N  0.27802914  0.74358423  0.10773334    -0.57900
N578        N  0.31875707  0.73590466  0.50721449    -0.04700
N579        N  0.34431498  0.72931074  0.49389024    -0.60400
C580        C  0.34513761  0.69873562  0.49557673     0.96400
C581        C  0.28977856  0.77012178  0.11726315     0.96200
N582        N  0.25281967  0.83336086  0.01218534    -0.05900
N583        N  0.24187699  0.85970987  0.02054403    -0.58500
N584        N  0.30370186  0.79758512  0.46529233    -0.04100
N585        N  0.32758667  0.81034452  0.45203231    -0.59700
N586        N  0.27855111  0.80396182  0.44880374    -0.06000
N587        N  0.28508246  0.82079469  0.42431700    -0.58700
N588        N  0.27779297  0.82653248  0.02846931    -0.03700
N589        N  0.28452550  0.84792968  0.04839478    -0.59800
Mn590      Mn  0.30176610  0.78398381  0.02088907     1.18400
C591        C  0.26202754  0.86843458  0.04304361     0.98500
C592        C  0.31581376  0.82461797  0.42592630     0.99200
N593        N  0.21960393  0.70512714  0.06497951    -0.06000
N594        N  0.21296163  0.68728151  0.08870885    -0.62300
N595        N  0.21926383  0.68419030  0.48644282    -0.04800
N596        N  0.21312324  0.66346605  0.46563063    -0.63000
N597        N  0.24410184  0.67713860  0.50286258    -0.05500
N598        N  0.25555442  0.65132491  0.49367816    -0.62600
N599        N  0.19461512  0.71157106  0.04828265    -0.04400
N600        N  0.17073439  0.69807548  0.06072035    -0.63300
Mn601      Mn  0.26565576  0.71095771  0.04438887     1.10700
C602        C  0.18228469  0.68319488  0.08652067     0.99700
C603        C  0.23580301  0.64309696  0.47063087     0.99800
N604        N  0.21577626  0.76597652  0.43690758    -0.05500
N605        N  0.21674754  0.76796390  0.40668953    -0.60900
N606        N  0.17877086  0.77344143  0.00749065    -0.04800
N607        N  0.15363129  0.77965144  0.02181542    -0.57600
N608        N  0.19197756  0.79875967  0.99861610    -0.06100
N609        N  0.17624203  0.82237878  0.00663831    -0.60500
N610        N  0.20206676  0.74077295  0.44531142    -0.05100
N611        N  0.19371144  0.72515765  0.42077235    -0.57600
Mn612      Mn  0.23262191  0.79927752  0.47015120     1.20200
Mn613      Mn  0.19566447  0.72687539  0.49408279     1.10100
Cl614      Cl  0.25082807  0.75650807  0.01024916    -0.85600
C615        C  0.20338312  0.74218259  0.39710473     0.96700
C616        C  0.15265354  0.81029295  0.02088087     0.96500
N617        N  0.44184986  0.76348225  0.20126134    -0.05800
N618        N  0.41389713  0.75363360  0.19563354    -0.57900
N619        N  0.50244367  0.80518208  0.18497464    -0.05400
N620        N  0.00393160  0.82602629  0.16795206    -0.60000
N621        N  0.50333196  0.77794439  0.17322566    -0.05000
N622        N  0.00389713  0.78024241  0.14690885    -0.57900
N623        N  0.44108398  0.79054603  0.21353521    -0.04700
N624        N  0.41285532  0.79956084  0.21657962    -0.60400
C625        C  0.39632889  0.77625016  0.20560618     0.96400
C626        C  0.00841984  0.81000845  0.14236388     0.96200
N627        N  0.03534952  0.81905404  0.27829091    -0.05900
N628        N  0.06396333  0.82705286  0.28234223    -0.58500
N629        N  0.46123848  0.82175397  0.27585142    -0.04100
N630        N  0.43779378  0.83916344  0.28251117    -0.59700
N631        N  0.47410209  0.81013007  0.30130734    -0.06000
N632        N  0.45932989  0.81944303  0.32566799    -0.58700
N633        N  0.02358952  0.83021816  0.25217712    -0.03700
N634        N  0.04431500  0.84597675  0.23772870    -0.59800
Mn635      Mn  0.48193562  0.81389741  0.22983110     1.18400
C636        C  0.06912475  0.84407988  0.25727485     0.98500
C637        C  0.43614041  0.83735936  0.31369961     0.99200
N638        N  0.02185184  0.71201087  0.19276252    -0.06000
N639        N  0.03464588  0.70403562  0.16704623    -0.62300
N640        N  0.48152849  0.68881115  0.24485450    -0.04800
N641        N  0.46323810  0.67056649  0.25970547    -0.63000
N642        N  0.46749617  0.69972754  0.21976595    -0.05500
N643        N  0.43973450  0.68899561  0.21667437    -0.62600
N644        N  0.03636594  0.69935707  0.21682848    -0.04400
N645        N  0.05938658  0.68234942  0.20752140    -0.63300
Mn646      Mn  0.48505757  0.73853801  0.19528607     1.10700
C647        C  0.05827415  0.68555024  0.17609419     0.99700
C648        C  0.43756177  0.67057809  0.24138282     0.99800
N649        N  0.99565318  0.74094522  0.32267341    -0.05500
N650        N  0.49260046  0.74203624  0.34754744    -0.60900
N651        N  0.05818349  0.72845573  0.28174312    -0.04800
N652        N  0.08633027  0.71830220  0.28087167    -0.57600
N653        N  0.05740845  0.75464727  0.29588266    -0.06100
N654        N  0.08522570  0.76280065  0.30464998    -0.60500
N655        N  0.99722243  0.71409010  0.30995911    -0.05100
N656        N  0.49691889  0.69613146  0.32727130    -0.57600
Mn657      Mn  0.01481400  0.78106949  0.30185888     1.20200
Mn658      Mn  0.01681302  0.70647837  0.26420000     1.10100
Cl659      Cl  0.50256039  0.76159999  0.24620454    -0.85600
C660        C  0.48913789  0.71208506  0.35195538     0.96700
C661        C  0.10283005  0.74019266  0.29481056     0.96500
N662        N  0.28892231  0.95510263  0.30649081    -0.05800
N663        N  0.30054957  0.93073002  0.32144537    -0.57900
N664        N  0.27761640  0.52629404  0.32392127    -0.05400
N665        N  0.28019362  0.54742763  0.34490058    -0.60000
N666        N  0.25511436  0.50791283  0.32964232    -0.05000
N667        N  0.24165055  0.51618207  0.35471880    -0.57900
N668        N  0.31077452  0.97422648  0.30020936    -0.04700
N669        N  0.33735397  0.96317108  0.31085948    -0.60400
C670        C  0.33111420  0.93568024  0.32363089     0.96400
C671        C  0.25775908  0.54068635  0.36395325     0.96200
N672        N  0.28225768  0.57643301  0.24164031    -0.05900
N673        N  0.28855796  0.60511596  0.23570766    -0.58500
N674        N  0.32215170  0.01940419  0.24216482    -0.04100
N675        N  0.35153735  0.01598929  0.23832618    -0.59700
N676        N  0.30791250  0.02757533  0.21595387    -0.06000
N677        N  0.32726962  0.02943733  0.19385321    -0.58700
N678        N  0.29435786  0.56824911  0.26881068    -0.03700
N679        N  0.30839264  0.59130275  0.28179348    -0.59800
Mn680      Mn  0.30355620  0.52098200  0.28279602     1.18400
C681        C  0.30435963  0.61422348  0.26124988     0.98500
C682        C  0.35407560  0.02183669  0.20802220     0.99200
N683        N  0.19602132  0.48957552  0.29193520    -0.06000
N684        N  0.17618368  0.48627898  0.31338778    -0.62300
N685        N  0.21225523  0.94632912  0.24194009    -0.04800
N686        N  0.19811321  0.92332714  0.22901953    -0.63000
N687        N  0.22561822  0.93781101  0.26848888    -0.05500
N688        N  0.21981381  0.90891796  0.27414580    -0.62600
N689        N  0.18220152  0.49828722  0.26560447    -0.04400
N690        N  0.15253496  0.50029244  0.26883841    -0.63300
Mn691      Mn  0.24040531  0.97186165  0.30251177     1.10700
C692        C  0.14946858  0.49329252  0.29888672     0.99700
C693        C  0.20325562  0.90008264  0.24891604     0.99800
N694        N  0.24799264  0.00796059  0.18022922    -0.05500
N695        N  0.26085000  0.99979703  0.15476200    -0.60900
N696        N  0.19694884  0.54408571  0.20644696    -0.04800
N697        N  0.17180920  0.55805587  0.19498043    -0.57600
N698        N  0.22073237  0.56140522  0.20209308    -0.06100
N699        N  0.21218844  0.58740087  0.18848801    -0.60500
N700        N  0.22591575  0.98931716  0.18669388    -0.05100
N701        N  0.22311222  0.96805873  0.16586663    -0.57600
Mn702      Mn  0.26790335  0.54241938  0.20769776     1.20200
Mn703      Mn  0.20130675  0.99356602  0.22900835     1.10100
Cl704      Cl  0.25483909  0.50736478  0.25241024    -0.85600
C705        C  0.24485300  0.97503133  0.14609046     0.96700
C706        C  0.18158414  0.58537417  0.18395266     0.96500
C707        C  0.32694545  0.63718914  0.26000281    -0.18200
C708        C  0.35170232  0.64827905  0.25852787     0.05900
C709        C  0.38262585  0.65485636  0.25550234     0.07800
C710        C  0.40875837  0.66004869  0.25071171    -0.19000
C711        C  0.09933178  0.85235088  0.24986165    -0.18200
C712        C  0.12612867  0.85678534  0.24794503     0.05900
C713        C  0.15730807  0.86385571  0.24864069     0.07800
C714        C  0.18173809  0.87597670  0.24953428    -0.19000
C715        C  0.25109051  0.95686789  0.12008174    -0.18200
C716        C  0.25454912  0.93930590  0.09963784     0.05900
C717        C  0.25718208  0.91650278  0.07759411     0.07800
C718        C  0.25911584  0.89535292  0.06066645    -0.19000
C719        C  0.25111256  0.55863210  0.38996963    -0.18200
C720        C  0.24690600  0.57557900  0.41075217     0.05900
C721        C  0.24299112  0.59729665  0.43362136     0.07800
C722        C  0.23986363  0.61738315  0.45158008    -0.19000
C723        C  0.13429709  0.73712976  0.30366562    -0.18200
C724        C  0.15839287  0.73523217  0.31758073     0.05900
C725        C  0.18114499  0.73487429  0.34118754     0.07800
C726        C  0.19452116  0.73687174  0.36570723    -0.19000
C727        C  0.36404729  0.77708512  0.20159022    -0.18200
C728        C  0.33805527  0.77833020  0.19224548     0.05900
C729        C  0.31226292  0.77849970  0.17228908     0.07800
C730        C  0.29747998  0.77612305  0.14868707    -0.19000
C731        C  0.39643288  0.59955838  0.48065896    -0.18200
C732        C  0.38981279  0.62588791  0.48014707     0.05900
C733        C  0.38110802  0.65635636  0.48060255     0.07800
C734        C  0.36822011  0.67969667  0.48480958    -0.19000
C735        C  0.10464786  0.91016131  0.03960001    -0.18200
C736        C  0.11046585  0.88354297  0.04083939     0.05900
C737        C  0.11841144  0.85276090  0.03947867     0.07800
C738        C  0.13043451  0.82923877  0.03369922    -0.19000
C739        C  0.12153207  0.48642082  0.31267226    -0.18200
C740        C  0.10325972  0.47803981  0.33054918     0.05900
C741        C  0.08444897  0.95941919  0.36222538     0.07800
C742        C  0.07183765  0.95726766  0.38599793    -0.19000
C743        C  0.38208706  0.02654911  0.19364439    -0.18200
C744        C  0.40181832  0.03326768  0.17676373     0.05900
C745        C  0.42268155  0.54242830  0.15074388     0.08800
C746        C  0.43366344  0.54683002  0.12641106    -0.19000
C747        C  0.00739019  0.82348177  0.11245059    -0.18200
C748        C  0.52538409  0.83372778  0.08913301     0.05900
C749        C  0.51364509  0.85563561  0.06844842     0.07800
C750        C  0.50266445  0.87906291  0.05938806    -0.19000
C751        C  0.01224065  0.63477466  0.43923278    -0.18200
C752        C  0.49780568  0.66210398  0.42749914     0.05900
C753        C  0.49012479  0.68422799  0.40513227     0.07800
C754        C  0.48682293  0.69866097  0.38168071    -0.19000
C755        C  0.13960096  0.60723810  0.14677676    -0.16100
C756        C  0.16218285  0.61086147  0.16903306    -0.31300
H757        H  0.13510732  0.58402782  0.14011913     0.12900
H758        H  0.16816633  0.63377992  0.17541646     0.13500
C759        C  0.07816671  0.67019973  0.15265134    -0.16100
C760        C  0.10126580  0.64942292  0.15766732    -0.31300
H761        H  0.07222560  0.67603931  0.12874027     0.12900
H762        H  0.10723883  0.64314377  0.18147670     0.13500
C763        C  0.16586486  0.66019198  0.10706886    -0.16100
C764        C  0.13509369  0.65684038  0.11053489    -0.31300
H765        H  0.18103529  0.64508703  0.12065845     0.12900
H766        H  0.12027554  0.67282650  0.09752590     0.13500
C767        C  0.09869503  0.60031419  0.08451108    -0.16100
C768        C  0.09361172  0.61533353  0.11113346    -0.31300
H769        H  0.12078902  0.60279546  0.07483359     0.12900
H770        H  0.07087315  0.61388021  0.11961525     0.13500
C771        C  0.40064817  0.89687855  0.39122442    -0.16100
C772        C  0.40203864  0.90524683  0.42143039    -0.31300
H773        H  0.41561472  0.90881396  0.37601451     0.12900
H774        H  0.38696914  0.89400427  0.43697285     0.13500
C775        C  0.33212082  0.84539210  0.40282080    -0.16100
C776        C  0.36278450  0.85206630  0.40133057    -0.31300
H777        H  0.31691543  0.85561942  0.38566786     0.12900
H778        H  0.37782023  0.84117353  0.41841680     0.13500
C779        C  0.35471903  0.88837797  0.35280252    -0.16100
C780        C  0.35438699  0.91855875  0.34437042    -0.31300
H781        H  0.33741850  0.87416905  0.34194345     0.12900
H782        H  0.37295154  0.93265443  0.35277040     0.13500
C783        C  0.39975036  0.85035045  0.35753443    -0.16100
C784        C  0.41525197  0.85790196  0.33170439    -0.31300
H785        H  0.40217474  0.82720078  0.36599520     0.12900
H786        H  0.41137229  0.88036642  0.32194665     0.13500
C787        C  0.37985717  0.87422917  0.88069809    -0.02100
C788        C  0.11752172  0.63657926  0.63388768    -0.02100
N789        N  0.06145354  0.99212876  0.94893662    -0.05800
N790        N  0.08291642  0.97587207  0.93678361    -0.57900
N791        N  0.50952163  0.55806752  0.94730774    -0.05400
N792        N  0.49863578  0.58395007  0.93613659    -0.60000
N793        N  0.02424654  0.55990245  0.96406428    -0.05000
N794        N  0.02980881  0.58926401  0.96453518    -0.57900
N795        N  0.03586969  0.98972809  0.93229710    -0.04700
N796        N  0.52514829  0.97839211  0.90542753    -0.60400
C797        C  0.06846705  0.96292115  0.91226999     0.96400
C798        C  0.00511861  0.60133848  0.94941739     0.96200
N799        N  0.43163832  0.53304537  0.98696342    -0.05900
N800        N  0.40942966  0.54945955  0.50294279    -0.58500
N801        N  0.45445874  0.96463479  0.95069943    -0.04100
N802        N  0.44292058  0.94721135  0.92834903    -0.59700
N803        N  0.44281370  0.95713319  0.97708077    -0.06000
N804        N  0.42356451  0.93430771  0.97318171    -0.58700
N805        N  0.44422942  0.54005841  0.96099336    -0.03700
N806        N  0.43507276  0.56701920  0.95084691    -0.59800
Mn807      Mn  0.48394300  0.51516904  0.94629532     1.18400
C808        C  0.41574500  0.57595994  0.97202901     0.98500
C809        C  0.42380159  0.92797125  0.94274915     0.99200
N810        N  0.06090359  0.55501705  0.53220965    -0.06000
N811        N  0.08042697  0.57726308  0.53845225    -0.62300
N812        N  0.06244699  0.97428859  0.54843462    -0.04800
N813        N  0.07068776  0.94734724  0.55926818    -0.63000
N814        N  0.07978210  0.98283214  0.01889564    -0.05500
N815        N  0.09865659  0.96023580  0.01400811    -0.62600
N816        N  0.04667665  0.54759122  0.55716971    -0.04400
N817        N  0.05609885  0.56481751  0.58060324    -0.63300
Mn818      Mn  0.05010689  0.52375529  0.98826482     1.10700
C819        C  0.07699915  0.58380489  0.56863334     0.99700
C820        C  0.08918701  0.93697775  0.53808550     0.99800
N821        N  0.46970770  0.95394628  0.53795947    -0.05500
N822        N  0.46442447  0.92459353  0.53624344    -0.60900
N823        N  0.48316784  0.52644765  0.57539588    -0.04800
N824        N  0.47978147  0.53968783  0.60187444    -0.57600
N825        N  0.45654854  0.52013951  0.56192080    -0.06100
N826        N  0.43458122  0.52923325  0.57924197    -0.60500
N827        N  0.49551709  0.95900871  0.55364653    -0.05100
N828        N  0.00831574  0.93160211  0.57151589    -0.57600
Mn829      Mn  0.44623689  0.98999825  0.51143676     1.20200
Mn830      Mn  0.02350970  0.00017599  0.56268911     1.10100
Cl831      Cl  0.50327447  0.50979199  0.00236822    -0.85600
C832        C  0.48859855  0.91226131  0.55196899     0.96700
C833        C  0.44948410  0.54183166  0.60363293     0.96500
N834        N  0.31016780  0.71431294  0.02324150    -0.05800
N835        N  0.32653174  0.69066818  0.01630946    -0.57900
N836        N  0.29184213  0.76652294  0.56333654    -0.05400
N837        N  0.29957173  0.78234512  0.58789864    -0.60000
N838        N  0.27821049  0.74127564  0.57163212    -0.05000
N839        N  0.27662090  0.73943999  0.60179367    -0.57900
N840        N  0.32315688  0.73953769  0.01381448    -0.04700
N841        N  0.34873979  0.73326780  0.00029808    -0.60400
C842        C  0.35031761  0.70267913  0.00225353     0.96400
C843        C  0.28953939  0.76539390  0.61144092     0.96200
N844        N  0.24981934  0.83011414  0.50593290    -0.05900
N845        N  0.23862589  0.85619703  0.51464757    -0.58500
N846        N  0.30658331  0.80071091  0.97127007    -0.04100
N847        N  0.33019121  0.81316351  0.95732931    -0.59700
N848        N  0.28121313  0.80691319  0.95509452    -0.06000
N849        N  0.28720305  0.82323157  0.93017333    -0.58700
N850        N  0.27463129  0.82310387  0.52243893    -0.03700
N851        N  0.28100843  0.84414207  0.54285168    -0.59800
Mn852      Mn  0.29842769  0.78056475  0.51473009     1.18400
C853        C  0.25844836  0.86459038  0.53754137     0.98500
C854        C  0.31786212  0.82692367  0.93116883     0.99200
N855        N  0.21606374  0.70414583  0.56004085    -0.06000
N856        N  0.20987424  0.68784415  0.58492233    -0.62300
N857        N  0.22493228  0.68696702  0.99129187    -0.04800
N858        N  0.21965994  0.66625630  0.97025286    -0.63000
N859        N  0.24960666  0.68020711  0.00817193    -0.05500
N860        N  0.26178987  0.65471737  0.99908270    -0.62600
N861        N  0.19078239  0.71061131  0.54386442    -0.04400
N862        N  0.16702053  0.69853659  0.55786713    -0.63300
Mn863      Mn  0.26143785  0.70818891  0.53843384     1.10700
C864        C  0.17915149  0.68468074  0.58406639     0.99700
C865        C  0.24270772  0.64632147  0.97558231     0.99800
N866        N  0.21937730  0.76948434  0.94296035    -0.05500
N867        N  0.21990275  0.77248523  0.91281105    -0.60900
N868        N  0.17516758  0.77131338  0.50135209    -0.04800
N869        N  0.14961449  0.77757627  0.51481713    -0.57600
N870        N  0.18842043  0.79647386  0.49212866    -0.06100
N871        N  0.17221810  0.82016064  0.49921493    -0.60500
N872        N  0.20612625  0.74389244  0.95076593    -0.05100
N873        N  0.19754079  0.72899729  0.92581630    -0.57600
Mn874      Mn  0.23580980  0.80222160  0.97656625     1.20200
Mn875      Mn  0.19994967  0.72909057  0.99923563     1.10100
Cl876      Cl  0.24705877  0.75372993  0.50426121    -0.85600
C877        C  0.20672719  0.74690172  0.90255788     0.96700
C878        C  0.14833489  0.80811310  0.51311821     0.96500
N879        N  0.43941965  0.76072727  0.70554253    -0.05800
N880        N  0.41199060  0.75015477  0.69868290    -0.57900
N881        N  0.49705879  0.80482127  0.68769635    -0.05400
N882        N  0.00928123  0.82724102  0.67491227    -0.60000
N883        N  0.49938361  0.77749686  0.67641793    -0.05000
N884        N  0.01026129  0.78092732  0.65503456    -0.57900
N885        N  0.43741419  0.78784931  0.71743911    -0.04700
N886        N  0.40879213  0.79625050  0.71898140    -0.60400
C887        C  0.39335055  0.77238104  0.70757908     0.96400
C888        C  0.01645562  0.81036226  0.65058363     0.96200
N889        N  0.03314475  0.82381650  0.78548092    -0.05900
N890        N  0.06139940  0.83266228  0.79041275    -0.58500
N891        N  0.45708251  0.82032626  0.77885912    -0.04100
N892        N  0.43229734  0.83598215  0.78475771    -0.59700
N893        N  0.47061012  0.81037765  0.80468670    -0.06000
N894        N  0.45516043  0.81945502  0.82867602    -0.58700
N895        N  0.02202814  0.83414636  0.75876857    -0.03700
N896        N  0.04293693  0.85007780  0.74478565    -0.59800
Mn897      Mn  0.47752618  0.81276105  0.73308499     1.18400
C898        C  0.06709566  0.84928463  0.76523244     0.98500
C899        C  0.43091721  0.83537510  0.81591193     0.99200
N900        N  0.02391328  0.71514656  0.69984553    -0.06000
N901        N  0.03577020  0.70697498  0.67379502    -0.62300
N902        N  0.48223033  0.68883785  0.75090662    -0.04800
N903        N  0.46424172  0.67086351  0.76644899    -0.63000
N904        N  0.46794255  0.69871207  0.72551635    -0.05500
N905        N  0.44038339  0.68745140  0.72290592    -0.62600
N906        N  0.03921292  0.70305973  0.72368577    -0.04400
N907        N  0.06193195  0.68595048  0.71369567    -0.63300
Mn908      Mn  0.48368900  0.73767846  0.70014563     1.10700
C909        C  0.05967164  0.68879114  0.68213856     0.99700
C910        C  0.43854449  0.66985425  0.74822440     0.99800
N911        N  0.99580125  0.74427709  0.82925178    -0.05500
N912        N  0.49242460  0.74312480  0.85342312    -0.60900
N913        N  0.05957047  0.73453741  0.78898531    -0.04800
N914        N  0.08821995  0.72599798  0.78811356    -0.57600
N915        N  0.05730187  0.76051598  0.80332751    -0.06100
N916        N  0.08457782  0.77016638  0.81219596    -0.60500
N917        N  0.99916267  0.71751516  0.81677606    -0.05100
N918        N  0.49838481  0.69734019  0.83341418    -0.57600
Mn919      Mn  0.01355507  0.78508130  0.80844331     1.20200
Mn920      Mn  0.01947804  0.71052042  0.77131638     1.10100
Cl921      Cl  0.50058294  0.76190928  0.75071137    -0.85600
C922        C  0.49063278  0.71301194  0.85826646     0.96700
C923        C  0.10340474  0.74866800  0.80221704     0.96500
N924        N  0.29102606  0.95337015  0.80466789    -0.05800
N925        N  0.30218697  0.93019017  0.82186821    -0.57900
N926        N  0.27708854  0.52968995  0.82726074    -0.05400
N927        N  0.28205662  0.54953493  0.84917890    -0.60000
N928        N  0.25377899  0.51245065  0.83319383    -0.05000
N929        N  0.24214308  0.52023755  0.85940992    -0.57900
N930        N  0.31299294  0.97233431  0.79821577    -0.04700
N931        N  0.33915910  0.96231945  0.81105917    -0.60400
C932        C  0.33259400  0.93561339  0.82531218     0.96400
C933        C  0.26021487  0.54325500  0.86903278     0.96200
N934        N  0.28229274  0.58044840  0.74528676    -0.05900
N935        N  0.28888698  0.60921463  0.74020919    -0.58500
N936        N  0.32412133  0.01522979  0.73771564    -0.04100
N937        N  0.35348651  0.01175274  0.73378428    -0.59700
N938        N  0.30968202  0.02230209  0.71126810    -0.06000
N939        N  0.32885003  0.02324756  0.68899116    -0.58700
N940        N  0.29400123  0.57153431  0.77238607    -0.03700
N941        N  0.30800772  0.59410774  0.78621238    -0.59800
Mn942      Mn  0.30193973  0.52400895  0.78553430     1.18400
C943        C  0.30438798  0.61754490  0.76624983     0.98500
C944        C  0.35576845  0.01626895  0.70322270     0.99200
N945        N  0.19318121  0.49774819  0.79485918    -0.06000
N946        N  0.17280525  0.49687205  0.81606914    -0.62300
N947        N  0.21412640  0.94292041  0.73964926    -0.04800
N948        N  0.19919806  0.91970006  0.72807876    -0.63000
N949        N  0.22773741  0.93522835  0.76634883    -0.05500
N950        N  0.22131644  0.90678613  0.77340136    -0.62600
N951        N  0.18038172  0.50690989  0.76817152    -0.04400
N952        N  0.15103530  0.51186147  0.77091971    -0.63300
Mn953      Mn  0.24265947  0.97017640  0.79928105     1.10700
C954        C  0.14693564  0.50605172  0.80098839     0.99700
C955        C  0.20402095  0.89723809  0.74899008     0.99800
N956        N  0.24926573  0.00277069  0.67568936    -0.05500
N957        N  0.26044099  0.99509854  0.64923194    -0.60900
N958        N  0.19661870  0.55041578  0.70898420    -0.04800
N959        N  0.17178441  0.56444539  0.69706324    -0.57600
N960        N  0.22068822  0.56730303  0.70471990    -0.06100
N961        N  0.21261902  0.59318205  0.69057316    -0.60500
N962        N  0.22705576  0.98454750  0.68276868    -0.05100
N963        N  0.22246379  0.96404039  0.66143495    -0.57600
Mn964      Mn  0.26727712  0.54709821  0.71078064     1.20200
Mn965      Mn  0.20330159  0.98994012  0.72529975     1.10100
Cl966      Cl  0.25285554  0.51230455  0.75545758    -0.85600
C967        C  0.24331177  0.97102664  0.64071417     0.96700
C968        C  0.18200563  0.59138408  0.68576927     0.96500
C969        C  0.32714668  0.64034524  0.76607860    -0.18200
C970        C  0.35224564  0.65075616  0.76549799     0.05900
C971        C  0.38346856  0.65604063  0.76310246     0.07800
C972        C  0.40977635  0.66013138  0.75830674    -0.19000
C973        C  0.09761787  0.85656257  0.75800858    -0.18200
C974        C  0.12450650  0.85950713  0.75513476     0.05900
C975        C  0.15598635  0.86439553  0.75349348     0.07800
C976        C  0.18113663  0.87467223  0.75194671    -0.19000
C977        C  0.24783507  0.95332462  0.61404164    -0.18200
C978        C  0.25052385  0.93573313  0.59352970     0.05900
C979        C  0.25305087  0.91263065  0.57188451     0.07800
C980        C  0.25526226  0.89132190  0.55527028    -0.19000
C981        C  0.25585537  0.56057398  0.89603736    -0.18200
C982        C  0.25321103  0.57756699  0.91709369     0.05900
C983        C  0.25029941  0.59977947  0.93964642     0.07800
C984        C  0.24726982  0.62033988  0.95705936    -0.19000
C985        C  0.13495702  0.74724743  0.81088102    -0.18200
C986        C  0.15931001  0.74519706  0.82420574     0.05900
C987        C  0.18268725  0.74307560  0.84704366     0.07800
C988        C  0.19684131  0.74314420  0.87122729    -0.19000
C989        C  0.36139990  0.77278498  0.70076214    -0.18200
C990        C  0.33632903  0.77341950  0.68885048     0.05900
C991        C  0.31212080  0.77308111  0.66689420     0.07800
C992        C  0.29805416  0.77080822  0.64283204    -0.19000
C993        C  0.40498307  0.60652450  0.97353798    -0.18200
C994        C  0.39725221  0.63249657  0.97607164     0.05900
C995        C  0.38640603  0.66184483  0.98162812     0.07800
C996        C  0.37282666  0.68388235  0.98943243    -0.19000
C997        C  0.09768611  0.90583974  0.53712534    -0.18200
C998        C  0.10318168  0.87927843  0.53585877     0.05900
C999        C  0.11221001  0.84917513  0.53202009     0.07800
C1000       C  0.12550080  0.82671613  0.52525915    -0.19000
C1001       C  0.11798438  0.50116186  0.81358495    -0.18200
C1002       C  0.09707194  0.49304766  0.82839721     0.05900
C1003       C  0.09444343  0.95615485  0.86152066     0.07800
C1004       C  0.08388838  0.95354246  0.88622211    -0.19000
C1005       C  0.38348235  0.02188322  0.68865490    -0.18200
C1006       C  0.40200672  0.03038080  0.67116839     0.05900
C1007       C  0.42414234  0.54182542  0.65630068     0.08800
C1008       C  0.43587791  0.54547772  0.63227695    -0.19000
C1009       C  0.01914079  0.82285044  0.62057456    -0.18200
C1010       C  0.51072412  0.83449122  0.58856397     0.05900
C1011       C  0.50205186  0.85678300  0.56680344     0.07800
C1012       C  0.49422325  0.88077086  0.55602268    -0.19000
C1013       C  0.99998052  0.63281033  0.94391809    -0.18200
C1014       C  0.50656044  0.66023108  0.93042327     0.05900
C1015       C  0.49635249  0.68378248  0.91055356     0.07800
C1016       C  0.49069123  0.69940081  0.88820463    -0.19000
C1017       C  0.13962425  0.61175728  0.64875007    -0.16100
C1018       C  0.16283099  0.61637448  0.67003551    -0.31300
H1019       H  0.13503833  0.58829605  0.64302310     0.12900
H1020       H  0.16892632  0.63954034  0.67540601     0.13500
C1021       C  0.07832561  0.67356271  0.65758769    -0.16100
C1022       C  0.10140921  0.65273259  0.66115720    -0.31300
H1023       H  0.07136746  0.67969890  0.63402845     0.12900
H1024       H  0.10833344  0.64619810  0.68462432     0.13500
C1025       C  0.16346019  0.66273023  0.60614041    -0.16100
C1026       C  0.13314700  0.66082238  0.61231057    -0.31300
H1027       H  0.17885824  0.64705780  0.61833772     0.12900
H1028       H  0.11803526  0.67715898  0.60059166     0.13500
C1029       C  0.09861881  0.60437986  0.58702740    -0.16100
C1030       C  0.09296785  0.61881843  0.61388625    -0.31300
H1031       H  0.12087691  0.60760950  0.57771386     0.12900
H1032       H  0.07025836  0.61683855  0.62244781     0.13500
C1033       C  0.40034811  0.89882481  0.89700585    -0.16100
C1034       C  0.40313941  0.90444629  0.92777926    -0.31300
H1035       H  0.41448047  0.91226229  0.88216249     0.12900
H1036       H  0.38932956  0.89160529  0.94332737     0.13500
C1037       C  0.33355207  0.84734926  0.90766312    -0.16100
C1038       C  0.36410105  0.85305534  0.90534400    -0.31300
H1039       H  0.31799104  0.85844573  0.89111995     0.12900
H1040       H  0.37934232  0.84145831  0.92200444     0.13500
C1041       C  0.35568052  0.88980740  0.85720924    -0.16100
C1042       C  0.35507635  0.91980478  0.84807524    -0.31300
H1043       H  0.33903128  0.87509429  0.84601569     0.12900
H1044       H  0.37293496  0.93446153  0.85694691     0.13500
C1045       C  0.40301284  0.85385918  0.86359939    -0.16100
C1046       C  0.40630110  0.85236452  0.83246610    -0.31300
H1047       H  0.41947741  0.84131091  0.87822365     0.12900
H1048       H  0.39053180  0.86521698  0.81747314     0.13500
C1049       C  0.88299632  0.37563801  0.37920118    -0.02100
C1050       C  0.61870884  0.13404333  0.13043418    -0.02100
N1051       N  0.54869882  0.50265429  0.44990101    -0.05800
N1052       N  0.57056689  0.49196481  0.43333968    -0.57900
N1053       N  0.01201730  0.05349165  0.45135227    -0.05400
N1054       N  0.00220525  0.08007614  0.44096670    -0.60000
N1055       N  0.52996730  0.05883856  0.45780662    -0.05000
N1056       N  0.53669222  0.08794658  0.45767262    -0.57900
N1057       N  0.52200585  0.49633755  0.43659431    -0.04700
N1058       N  0.03005267  0.47641436  0.40822131    -0.60400
C1059       C  0.55543767  0.47839151  0.40963380     0.96400
C1060       C  0.51325387  0.10048100  0.44094813     0.96200
N1061       N  0.93311858  0.03078859  0.49205136    -0.05900
N1062       N  0.91819556  0.05501246  0.97912464    -0.58500
N1063       N  0.95681063  0.47091196  0.44596441    -0.04100
N1064       N  0.94642561  0.45351531  0.42305095    -0.59700
N1065       N  0.94201588  0.46507453  0.47098827    -0.06000
N1066       N  0.92138031  0.44375345  0.46541642    -0.58700
N1067       N  0.94582546  0.03790751  0.46616363    -0.03700
N1068       N  0.93684945  0.06500687  0.45620799    -0.59800
Mn1069     Mn  0.98447410  0.01170838  0.45077126     1.18400
C1070       C  0.91751714  0.07387667  0.47747041     0.98500
C1071       C  0.92457487  0.43604037  0.43560696     0.99200
N1072       N  0.55872198  0.05383138  0.03017368    -0.06000
N1073       N  0.57650741  0.07779014  0.03459888    -0.62300
N1074       N  0.56265477  0.48006698  0.04427569    -0.04800
N1075       N  0.57256910  0.45373988  0.05531845    -0.63000
N1076       N  0.57627134  0.49439480  0.51718978    -0.05500
N1077       N  0.59427679  0.47296995  0.50739347    -0.62600
N1078       N  0.54708391  0.04552897  0.05631676    -0.04400
N1079       N  0.55687611  0.06356160  0.07889895    -0.63300
Mn1080     Mn  0.55300882  0.02285254  0.48497698     1.10700
C1081       C  0.57509126  0.08403527  0.06506278     0.99700
C1082       C  0.59237028  0.44483135  0.03463905     0.99800
N1083       N  0.97310762  0.44805209  0.04353147    -0.05500
N1084       N  0.96777771  0.41861094  0.04353044    -0.60900
N1085       N  0.98320307  0.02768818  0.06301677    -0.04800
N1086       N  0.97764800  0.03875230  0.09008313    -0.57600
N1087       N  0.95761545  0.02395289  0.04644168    -0.06100
N1088       N  0.93437704  0.03256047  0.06238818    -0.60500
N1089       N  0.99942328  0.45377762  0.05798082    -0.05100
N1090       N  0.50924425  0.43525216  0.06600353    -0.57600
Mn1091     Mn  0.94709699  0.48438290  0.01947402     1.20200
Mn1092     Mn  0.52266174  0.50429826  0.05836645     1.10100
Cl1093     Cl  0.00413805  0.00571018  0.50668415    -0.85600
C1094       C  0.99259142  0.40690162  0.05885513     0.96700
C1095       C  0.94730392  0.04217651  0.08923657     0.96500
N1096       N  0.80550957  0.21478582  0.51499561    -0.05800
N1097       N  0.82162611  0.19045378  0.50989344    -0.57900
N1098       N  0.79587787  0.26056962  0.06103328    -0.05400
N1099       N  0.80590349  0.27524203  0.08560558    -0.60000
N1100       N  0.78137009  0.23589475  0.06935932    -0.05000
N1101       N  0.78139754  0.23323852  0.09960256    -0.57900
N1102       N  0.82044170  0.23947562  0.50736987    -0.04700
N1103       N  0.84726445  0.23211546  0.49695495    -0.60400
C1104       C  0.84734204  0.20144390  0.49869982     0.96400
C1105       C  0.79637431  0.25812364  0.10925686     0.96200
N1106       N  0.75402194  0.32736508  0.00696550    -0.05900
N1107       N  0.74435407  0.35344370  0.01723683    -0.58500
N1108       N  0.80688838  0.30196812  0.46608423    -0.04100
N1109       N  0.83160213  0.31195703  0.45228873    -0.59700
N1110       N  0.78232093  0.30909670  0.44899052    -0.06000
N1111       N  0.79000151  0.32333675  0.42329126    -0.58700
N1112       N  0.77897030  0.31861597  0.02236925    -0.03700
N1113       N  0.78697136  0.33844630  0.04349985    -0.59800
Mn1114     Mn  0.80026030  0.27536441  0.01246625     1.18400
C1115       C  0.76528428  0.36000356  0.03978745     0.98500
C1116       C  0.82086696  0.32517876  0.42525106     0.99200
N1117       N  0.71657318  0.20350264  0.05915171    -0.06000
N1118       N  0.71076796  0.18635415  0.08349842    -0.62300
N1119       N  0.71794230  0.19339825  0.48205132    -0.04800
N1120       N  0.71152705  0.17400984  0.45998283    -0.63000
N1121       N  0.74263398  0.18506964  0.49809848    -0.05500
N1122       N  0.75361913  0.15967670  0.48748849    -0.62600
N1123       N  0.69095468  0.21145682  0.04421632    -0.04400
N1124       N  0.66740447  0.19934025  0.05842058    -0.63300
Mn1125     Mn  0.76097386  0.20507227  0.03580444     1.10700
C1126       C  0.68006397  0.18397997  0.08340178     0.99700
C1127       C  0.73384198  0.15308280  0.46391817     0.99800
N1128       N  0.71761706  0.27580899  0.43526167    -0.05500
N1129       N  0.71865225  0.27816283  0.40502235    -0.60900
N1130       N  0.67571055  0.27411831  0.00343499    -0.04800
N1131       N  0.65032711  0.28212209  0.01645594    -0.57600
N1132       N  0.69028394  0.29839127  0.99395249    -0.06100
N1133       N  0.67537386  0.32308446  0.00040861    -0.60500
N1134       N  0.70253952  0.25129647  0.44320775    -0.05100
N1135       N  0.69338740  0.23644908  0.41846387    -0.57600
Mn1136     Mn  0.73615954  0.30730193  0.46961399     1.20200
Mn1137     Mn  0.69570216  0.23641651  0.49140756     1.10100
Cl1138     Cl  0.74709501  0.25195288  0.00348910    -0.85600
C1139       C  0.70385900  0.25322347  0.39506672     0.96700
C1140       C  0.65078097  0.31275328  0.01428670     0.96500
N1141       N  0.94497840  0.25219137  0.20962153    -0.05800
N1142       N  0.91761440  0.24216196  0.20161889    -0.57900
N1143       N  0.00418416  0.29422568  0.19430179    -0.05400
N1144       N  0.50988641  0.32755635  0.16710724    -0.60000
N1145       N  0.00655866  0.26687948  0.18291400    -0.05000
N1146       N  0.51081140  0.28181347  0.14595033    -0.57900
N1147       N  0.94299187  0.27927168  0.22172460    -0.04700
N1148       N  0.91439100  0.28816673  0.22206356    -0.60400
C1149       C  0.89897431  0.26461427  0.20986085     0.96400
C1150       C  0.51755380  0.31128050  0.14255107     0.96200
N1151       N  0.53491147  0.32152301  0.27504306    -0.05900
N1152       N  0.56363390  0.32937031  0.27818321    -0.58500
N1153       N  0.96187452  0.31337414  0.28383095    -0.04100
N1154       N  0.93902951  0.33199430  0.28935827    -0.59700
N1155       N  0.97455597  0.30317376  0.30997598    -0.06000
N1156       N  0.96023870  0.31458011  0.33362699    -0.58700
N1157       N  0.52252506  0.33269720  0.24923428    -0.03700
N1158       N  0.54290517  0.34815562  0.23406155    -0.59800
Mn1159     Mn  0.98327157  0.30363775  0.23864164     1.18400
C1160       C  0.56817392  0.34624741  0.25285966     0.98500
C1161       C  0.93745178  0.33222791  0.32055945     0.99200
N1162       N  0.52321288  0.21438500  0.18927583    -0.06000
N1163       N  0.53545972  0.20598147  0.16347630    -0.62300
N1164       N  0.98115461  0.18097808  0.25908037    -0.04800
N1165       N  0.96039998  0.16712212  0.27520088    -0.63000
N1166       N  0.96927206  0.18993232  0.23216630    -0.05500
N1167       N  0.94052819  0.18201242  0.22929298    -0.62600
N1168       N  0.53787243  0.20188909  0.21329723    -0.04400
N1169       N  0.56050210  0.18452387  0.20394763    -0.63300
Mn1170     Mn  0.98865707  0.22733934  0.20644175     1.10700
C1171       C  0.55891563  0.18743189  0.17255800     0.99700
C1172       C  0.93543853  0.16753123  0.25594861     0.99800
N1173       N  0.49757654  0.24223860  0.31927198    -0.05500
N1174       N  0.99404302  0.23720761  0.36144089    -0.60900
N1175       N  0.55982482  0.23106362  0.27807882    -0.04800
N1176       N  0.58811055  0.22109344  0.27786619    -0.57600
N1177       N  0.55856147  0.25725949  0.29217038    -0.06100
N1178       N  0.58612840  0.26560596  0.30154510    -0.60500
N1179       N  0.49949947  0.21549822  0.30638592    -0.05100
N1180       N  0.99727051  0.19056317  0.34288404    -0.57600
Mn1181     Mn  0.51550018  0.28283166  0.29838030     1.20200
Mn1182     Mn  0.51864000  0.20856414  0.26048897     1.10100
Cl1183     Cl  0.00364708  0.25234281  0.25757333    -0.85600
C1184       C  0.99119811  0.20741272  0.36748811     0.96700
C1185       C  0.60414307  0.24312720  0.29217121     0.96500
N1186       N  0.77948430  0.44709861  0.30772939    -0.05800
N1187       N  0.78675971  0.42270437  0.32475796    -0.57900
N1188       N  0.78153232  0.02930411  0.32404751    -0.05400
N1189       N  0.78439085  0.05109027  0.34431102    -0.60000
N1190       N  0.75792908  0.01228673  0.32960275    -0.05000
N1191       N  0.74407771  0.02212951  0.35382719    -0.57900
N1192       N  0.80389166  0.46334137  0.30288103    -0.04700
N1193       N  0.82823069  0.44986034  0.31679689    -0.60400
C1194       C  0.81730677  0.42403053  0.33010640     0.96400
C1195       C  0.76112359  0.04605939  0.36284317     0.96200
N1196       N  0.78508740  0.08133102  0.24390403    -0.05900
N1197       N  0.78863714  0.11092158  0.24091529    -0.58500
N1198       N  0.82060612  0.50588955  0.24268481    -0.04100
N1199       N  0.84992648  0.50065388  0.24009167    -0.59700
N1200       N  0.80787451  0.51443479  0.21579120    -0.06000
N1201       N  0.82816963  0.51449561  0.19454540    -0.58700
N1202       N  0.79814378  0.07154219  0.27007737    -0.03700
N1203       N  0.81003926  0.09427323  0.28549771    -0.59800
Mn1204     Mn  0.80643944  0.02364107  0.28214230     1.18400
C1205       C  0.80360876  0.11869491  0.26744626     0.98500
C1206       C  0.85396267  0.50555441  0.20984884     0.99200
N1207       N  0.69726526  0.99740544  0.29255887    -0.06000
N1208       N  0.67739204  0.99559823  0.31418604    -0.62300
N1209       N  0.70800986  0.44061949  0.23786832    -0.04800
N1210       N  0.69678114  0.41712798  0.22321530    -0.63000
N1211       N  0.71941116  0.43233725  0.26528535    -0.05500
N1212       N  0.71530378  0.40298855  0.26981084    -0.62600
N1213       N  0.68380003  0.00696700  0.26638101    -0.04400
N1214       N  0.65443876  0.01121467  0.26984334    -0.63300
Mn1215     Mn  0.73291029  0.46669231  0.29945826     1.10700
C1216       C  0.65108520  0.00458972  0.29989596     0.99700
C1217       C  0.70176229  0.39376242  0.24302692     0.99800
N1218       N  0.74877021  0.49843682  0.17727299    -0.05500
N1219       N  0.76263111  0.48908556  0.15288169    -0.60900
N1220       N  0.69883853  0.05208616  0.20834667    -0.04800
N1221       N  0.67379351  0.06566166  0.19642033    -0.57600
N1222       N  0.72263312  0.06940105  0.20414233    -0.06100
N1223       N  0.71409594  0.09514633  0.18997215    -0.60500
N1224       N  0.72539735  0.48115004  0.18274576    -0.05100
N1225       N  0.72261796  0.45959186  0.16225260    -0.57600
Mn1226     Mn  0.76939029  0.04924924  0.20868219     1.20200
Mn1227     Mn  0.69917542  0.48771340  0.22346112     1.10100
Cl1228     Cl  0.75640638  0.01309107  0.25261071    -0.85600
C1229       C  0.74583259  0.46504984  0.14377856     0.96700
C1230       C  0.68350203  0.09280342  0.18524561     0.96500
C1231       C  0.82294803  0.14437658  0.26960794    -0.18200
C1232       C  0.84714176  0.15675888  0.27082049     0.05900
C1233       C  0.87852721  0.16170810  0.26979907     0.07800
C1234       C  0.90524848  0.16307718  0.26562623    -0.19000
C1235       C  0.59818560  0.35213246  0.24343402    -0.18200
C1236       C  0.62501868  0.35368638  0.23995409     0.05900
C1237       C  0.65661189  0.35768529  0.23995406     0.07800
C1238       C  0.68139830  0.36885196  0.24159357    -0.19000
C1239       C  0.75292083  0.44603797  0.11886585    -0.18200
C1240       C  0.75751762  0.42834828  0.09894098     0.05900
C1241       C  0.76128639  0.40598243  0.07687751     0.07800
C1242       C  0.76344430  0.38560006  0.05920028    -0.19000
C1243       C  0.75331128  0.06625158  0.38667062    -0.18200
C1244       C  0.74743707  0.08481417  0.40545102     0.05900
C1245       C  0.74156969  0.10777031  0.42647119     0.07800
C1246       C  0.73751626  0.12810732  0.44387812    -0.19000
C1247       C  0.63556745  0.24068810  0.30154439    -0.18200
C1248       C  0.65957987  0.24081616  0.31574875     0.05900
C1249       C  0.68221830  0.24367454  0.33926146     0.07800
C1250       C  0.69544941  0.24773824  0.36356774    -0.19000
C1251       C  0.86733755  0.26551172  0.20136632    -0.18200
C1252       C  0.84298591  0.26587408  0.18788119     0.05900
C1253       C  0.81982762  0.26509442  0.16476136     0.07800
C1254       C  0.80599863  0.26283865  0.14053561    -0.19000
C1255       C  0.90627473  0.10428970  0.47900101    -0.18200
C1256       C  0.89773590  0.13006711  0.48118291     0.05900
C1257       C  0.88578670  0.15933560  0.48510243     0.07800
C1258       C  0.87123290  0.18168329  0.49013635    -0.19000
C1259       C  0.60293254  0.41422468  0.03387451    -0.18200
C1260       C  0.60891261  0.38766527  0.03321868     0.05900
C1261       C  0.61694372  0.35698860  0.03063960     0.07800
C1262       C  0.62878550  0.33323730  0.02525554    -0.19000
C1263       C  0.62264142  0.99839455  0.31301358    -0.18200
C1264       C  0.60269969  0.98896649  0.32840912     0.05900
C1265       C  0.57928874  0.47388018  0.35647030     0.07800
C1266       C  0.56890269  0.47233244  0.38137106    -0.19000
C1267       C  0.88274433  0.50977666  0.19685319    -0.18200
C1268       C  0.90269381  0.51763546  0.18070372     0.05900
C1269       C  0.91961835  0.03675162  0.14085350     0.08800
C1270       C  0.93137321  0.04235330  0.11704880    -0.19000
C1271       C  0.52147248  0.32465001  0.11310782    -0.18200
C1272       C  0.01435031  0.32754598  0.09650940     0.05900
C1273       C  0.00533438  0.35142608  0.07644295     0.07800
C1274       C  0.99786428  0.37551826  0.06534692    -0.19000
C1275       C  0.50922645  0.13198526  0.43505856    -0.18200
C1276       C  0.01277479  0.15602295  0.43860060     0.05900
C1277       C  0.00118066  0.17991542  0.42005766     0.07800
C1278       C  0.99350776  0.19505642  0.39793922    -0.19000
C1279       C  0.64121487  0.11078286  0.14727523    -0.16100
C1280       C  0.66383513  0.11689103  0.16872607    -0.31300
H1281       H  0.63774771  0.08689260  0.14240740     0.12900
H1282       H  0.66909748  0.14042237  0.17348274     0.13500
C1283       C  0.57792461  0.17126354  0.14938759    -0.16100
C1284       C  0.60130279  0.15135186  0.15557061    -0.31300
H1285       H  0.57154966  0.17576286  0.12545292     0.12900
H1286       H  0.60760516  0.14672505  0.17954544     0.13500
C1287       C  0.66465298  0.16176101  0.10501383    -0.16100
C1288       C  0.63413328  0.15779840  0.10844120    -0.31300
H1289       H  0.68018521  0.14774105  0.11875603     0.12900
H1290       H  0.61893264  0.17250724  0.09490236     0.13500
C1291       C  0.59460424  0.10795237  0.08116648    -0.16100
C1292       C  0.59513753  0.11383603  0.11197586    -0.31300
H1293       H  0.61032901  0.12004871  0.06691229     0.12900
H1294       H  0.57992435  0.10049280  0.12581232     0.13500
C1295       C  0.90758959  0.39583656  0.39619887    -0.16100
C1296       C  0.90145960  0.41678761  0.41788047    -0.31300
H1297       H  0.93129365  0.39253501  0.39111274     0.12900
H1298       H  0.87808648  0.41891833  0.42450571     0.13500
C1299       C  0.83958964  0.33984395  0.40001101    -0.16100
C1300       C  0.86341964  0.35952393  0.40462660    -0.31300
H1301       H  0.83179269  0.33584245  0.37647185     0.12900
H1302       H  0.86982652  0.36390164  0.42849079     0.13500
C1303       C  0.86474546  0.39721424  0.35553918    -0.16100
C1304       C  0.83409698  0.40234046  0.35290651    -0.31300
H1305       H  0.87833908  0.40983265  0.33956986     0.12900
H1306       H  0.81970575  0.38963890  0.36792854     0.13500
C1307       C  0.90038034  0.35051804  0.36134023    -0.16100
C1308       C  0.91901406  0.35572587  0.33729214    -0.31300
H1309       H  0.89795203  0.32715790  0.36901653     0.12900
H1310       H  0.92040193  0.37872501  0.32836624     0.13500
C1311       C  0.87928329  0.37107730  0.88008494    -0.02100
C1312       C  0.61884445  0.13593947  0.62561722    -0.02100
N1313       N  0.55166795  0.49663157  0.94950348    -0.05800
N1314       N  0.57407118  0.48636105  0.93344987    -0.57900
N1315       N  0.02318332  0.05700420  0.94303093    -0.05400
N1316       N  0.01391031  0.08350317  0.93209491    -0.60000
N1317       N  0.52808447  0.05916350  0.96201727    -0.05000
N1318       N  0.53317126  0.08862502  0.96126840    -0.57900
N1319       N  0.52542360  0.49218117  0.93438129    -0.04700
N1320       N  0.01955589  0.47977212  0.90483996    -0.60400
C1321       C  0.55998199  0.47510238  0.90794040     0.96400
C1322       C  0.50876893  0.09949734  0.94467928     0.96200
N1323       N  0.93988836  0.03495131  0.97534347    -0.05900
N1324       N  0.91524451  0.05299001  0.50033974    -0.58500
N1325       N  0.95019184  0.46530033  0.95043615    -0.04100
N1326       N  0.93896202  0.44785971  0.92786161    -0.59700
N1327       N  0.93985150  0.45626045  0.97695894    -0.06000
N1328       N  0.92172399  0.43253889  0.97290814    -0.58700
N1329       N  0.95539291  0.04222872  0.95123056    -0.03700
N1330       N  0.94470949  0.06740192  0.93796564    -0.59800
Mn1331     Mn  0.99555437  0.01593762  0.94029617     1.18400
C1332       C  0.92138375  0.07481597  0.95545221     0.98500
C1333       C  0.92132197  0.42707101  0.94223537     0.99200
N1334       N  0.55920301  0.05305734  0.52657950    -0.06000
N1335       N  0.57920841  0.07513229  0.53173050    -0.62300
N1336       N  0.56589277  0.48653914  0.54397551    -0.04800
N1337       N  0.57686570  0.46002860  0.55320107    -0.63000
N1338       N  0.57529785  0.48686395  0.01832398    -0.05500
N1339       N  0.59404888  0.46499116  0.01095605    -0.62600
N1340       N  0.54584270  0.04614097  0.55220304    -0.04400
N1341       N  0.55647254  0.06349159  0.57505273    -0.63300
Mn1342     Mn  0.55323335  0.02403778  0.98831703     1.10700
C1343       C  0.57710170  0.08206137  0.56197862     0.99700
C1344       C  0.59476239  0.45205531  0.53050692     0.99800
N1345       N  0.96742001  0.45862358  0.54015793    -0.05500
N1346       N  0.95936006  0.42989785  0.53979526    -0.60900
N1347       N  0.98302911  0.02403852  0.57528548    -0.04800
N1348       N  0.97943979  0.03592387  0.60241617    -0.57600
N1349       N  0.95648360  0.02002033  0.56066003    -0.06100
N1350       N  0.93450608  0.02939223  0.57781000    -0.60500
N1351       N  0.99322657  0.46216222  0.55630369    -0.05100
N1352       N  0.51756954  0.43735440  0.56920545    -0.57600
Mn1353     Mn  0.94709389  0.49522999  0.51233331     1.20200
Mn1354     Mn  0.52518083  0.50726836  0.56070341     1.10100
Cl1355     Cl  0.00994492  0.00950710  0.99714153    -0.85600
C1356       C  0.98180193  0.41626693  0.55695039     0.96700
C1357       C  0.94920120  0.03966964  0.60345837     0.96500
N1358       N  0.80377747  0.20537634  0.01132589    -0.05800
N1359       N  0.81727868  0.18108373  0.00126259    -0.57900
N1360       N  0.79281267  0.26970384  0.56343242    -0.05400
N1361       N  0.80090130  0.28384483  0.58900649    -0.60000
N1362       N  0.77810797  0.24461521  0.57015238    -0.05000
N1363       N  0.77598791  0.24123130  0.60010577    -0.57900
N1364       N  0.81787057  0.23007258  0.00220658    -0.04700
N1365       N  0.84129460  0.22288457  0.98576574    -0.60400
C1366       C  0.84044197  0.19229772  0.98553212     0.96400
C1367       C  0.78981804  0.26601962  0.61142633     0.96200
N1368       N  0.75440382  0.33686301  0.50647504    -0.05900
N1369       N  0.74403983  0.36314402  0.51578205    -0.58500
N1370       N  0.80388148  0.29328670  0.96366312    -0.04100
N1371       N  0.82777021  0.30589593  0.95048974    -0.59700
N1372       N  0.77857828  0.30120938  0.94819437    -0.06000
N1373       N  0.78499133  0.31894183  0.92439189    -0.58700
N1374       N  0.77844273  0.32835237  0.52349157    -0.03700
N1375       N  0.78506971  0.34858580  0.54474421    -0.59800
Mn1376     Mn  0.80079660  0.28481762  0.51526720     1.18400
C1377       C  0.76352188  0.37015396  0.53954068     0.98500
C1378       C  0.81576435  0.32167996  0.92553315     0.99200
N1379       N  0.71544313  0.21035844  0.55617590    -0.06000
N1380       N  0.70930138  0.19225246  0.57970575    -0.62300
N1381       N  0.71503422  0.18481254  0.98523043    -0.04800
N1382       N  0.70738095  0.16497034  0.96393719    -0.63000
N1383       N  0.74010650  0.17629175  0.00050136    -0.05500
N1384       N  0.75014410  0.15042417  0.99013666    -0.62600
N1385       N  0.69021657  0.21791907  0.54040979    -0.04400
N1386       N  0.66651431  0.20439607  0.55328506    -0.63300
Mn1387     Mn  0.76082599  0.21364572  0.53528007     1.10700
C1388       C  0.67872255  0.18869841  0.57840792     0.99700
C1389       C  0.72936956  0.14364570  0.96758213     0.99800
N1390       N  0.71355619  0.26718419  0.93732661    -0.05500
N1391       N  0.71425387  0.26893449  0.90704701    -0.60900
N1392       N  0.67702625  0.28190492  0.49966483    -0.04800
N1393       N  0.65088504  0.28954009  0.51134632    -0.57600
N1394       N  0.69174942  0.30640393  0.49089051    -0.06100
N1395       N  0.67617585  0.33087822  0.49662612    -0.60500
N1396       N  0.69877637  0.24271321  0.94597763    -0.05100
N1397       N  0.68941534  0.22731149  0.92165137    -0.57600
Mn1398     Mn  0.73364684  0.29868732  0.97086197     1.20200
Mn1399     Mn  0.69389180  0.22849006  0.99473506     1.10100
Cl1400     Cl  0.74834202  0.26064340  0.50286423    -0.85600
C1401       C  0.69944017  0.24376985  0.89779015     0.96700
C1402       C  0.65104971  0.32014263  0.50922959     0.96500
N1403       N  0.93820655  0.25502257  0.70442218    -0.05800
N1404       N  0.91106400  0.24338089  0.69844598    -0.57900
N1405       N  0.99461043  0.30130828  0.68756225    -0.05400
N1406       N  0.51410865  0.32893247  0.67639766    -0.60000
N1407       N  0.99733411  0.27449206  0.67519033    -0.05000
N1408       N  0.51441162  0.28458573  0.65237685    -0.57900
N1409       N  0.93560506  0.28167956  0.71720059    -0.04700
N1410       N  0.90678788  0.28863072  0.72026359    -0.60400
C1411       C  0.89193493  0.26438905  0.70886980     0.96400
C1412       C  0.52234250  0.31384404  0.65123347     0.96200
N1413       N  0.53860169  0.31408005  0.78222982    -0.05900
N1414       N  0.56716002  0.32237819  0.78639600    -0.58500
N1415       N  0.95481261  0.31361149  0.77894859    -0.04100
N1416       N  0.93034782  0.32957044  0.78512131    -0.59700
N1417       N  0.96862466  0.30356334  0.80459536    -0.06000
N1418       N  0.95369313  0.31307665  0.82880509    -0.58700
N1419       N  0.52558509  0.32847930  0.75846232    -0.03700
N1420       N  0.54524080  0.34685097  0.74569977    -0.59800
Mn1421     Mn  0.97517168  0.30763125  0.73302140     1.18400
C1422       C  0.57080982  0.34305327  0.76380966     0.98500
C1423       C  0.92942215  0.32921521  0.81626377     0.99200
N1424       N  0.52307467  0.21368610  0.68900009    -0.06000
N1425       N  0.53583184  0.20689775  0.66290241    -0.62300
N1426       N  0.98271554  0.18335295  0.74721899    -0.04800
N1427       N  0.96497745  0.16574567  0.76341291    -0.63000
N1428       N  0.96788573  0.19335817  0.72218211    -0.05500
N1429       N  0.94010039  0.18251566  0.72053579    -0.62600
N1430       N  0.53675158  0.19887601  0.71221477    -0.04400
N1431       N  0.55920789  0.18173068  0.70209194    -0.63300
Mn1432     Mn  0.98270440  0.23339877  0.69758935     1.10700
C1433       C  0.55862679  0.18705657  0.67101245     0.99700
C1434       C  0.93877293  0.16505497  0.74602911     0.99800
N1435       N  0.49722008  0.23364418  0.81981666    -0.05500
N1436       N  0.99373428  0.23531792  0.85090436    -0.60900
N1437       N  0.55938234  0.22229910  0.77857573    -0.04800
N1438       N  0.58732123  0.21156363  0.77725246    -0.57600
N1439       N  0.55931613  0.24777040  0.79397793    -0.06100
N1440       N  0.58723508  0.25486134  0.80324573    -0.60500
N1441       N  0.49746560  0.20770457  0.80532057    -0.05100
N1442       N  0.00113517  0.19021058  0.83007514    -0.57600
Mn1443     Mn  0.51777933  0.27432689  0.80234096     1.20200
Mn1444     Mn  0.51707583  0.20296920  0.75942945     1.10100
Cl1445     Cl  0.99929662  0.25690278  0.74866213    -0.85600
C1446       C  0.99363785  0.20514802  0.85550695     0.96700
C1447       C  0.60430596  0.23241926  0.79238093     0.96500
N1448       N  0.79097512  0.45462322  0.80703564    -0.05800
N1449       N  0.80053188  0.43037393  0.82368302    -0.57900
N1450       N  0.77373467  0.02359786  0.82387404    -0.05400
N1451       N  0.77785913  0.04394856  0.84545774    -0.60000
N1452       N  0.74874068  0.00818790  0.82788067    -0.05000
N1453       N  0.73513968  0.01766760  0.85237816    -0.57900
N1454       N  0.81439937  0.47181083  0.80084922    -0.04700
N1455       N  0.83981267  0.45961926  0.81303238    -0.60400
C1456       C  0.83141497  0.43331784  0.82670868     0.96400
C1457       C  0.75378041  0.03971379  0.86311253     0.96200
N1458       N  0.78400473  0.07511099  0.74385478    -0.05900
N1459       N  0.79112814  0.10393349  0.74016027    -0.58500
N1460       N  0.83064967  0.51458743  0.74320900    -0.04100
N1461       N  0.85952749  0.50783090  0.73970191    -0.59700
N1462       N  0.81745752  0.52329496  0.71669254    -0.06000
N1463       N  0.83685864  0.52213610  0.69471125    -0.58700
N1464       N  0.79551197  0.06475755  0.77058058    -0.03700
N1465       N  0.80988606  0.08646628  0.78550704    -0.59800
Mn1466     Mn  0.80012962  0.01646632  0.78339735     1.18400
C1467       C  0.80663564  0.11081727  0.76665149     0.98500
C1468       C  0.86265321  0.51211734  0.70921395     0.99200
N1469       N  0.68902151  0.99752848  0.78774212    -0.06000
N1470       N  0.66873872  0.99816578  0.80895297    -0.62300
N1471       N  0.71396639  0.45280652  0.73984530    -0.04800
N1472       N  0.69841991  0.43073729  0.72671178    -0.63000
N1473       N  0.72673242  0.44333515  0.76641323    -0.05500
N1474       N  0.71931408  0.41480299  0.77171660    -0.62600
N1475       N  0.67691239  0.00735897  0.76105592    -0.04400
N1476       N  0.64789924  0.01423385  0.76374175    -0.63300
Mn1477     Mn  0.74383799  0.47576290  0.80122341     1.10700
C1478       C  0.64352539  0.00890009  0.79390651     0.99700
C1479       C  0.70224452  0.40711324  0.74644720     0.99800
N1480       N  0.75692099  0.50984825  0.67869714    -0.05500
N1481       N  0.76911382  0.50062061  0.65320637    -0.60900
N1482       N  0.69693444  0.05058141  0.70331970    -0.04800
N1483       N  0.67292082  0.06506092  0.69020593    -0.57600
N1484       N  0.72174033  0.06670942  0.70002245    -0.06100
N1485       N  0.71472608  0.09262710  0.68513807    -0.60500
N1486       N  0.73269051  0.49376929  0.68433182    -0.05100
N1487       N  0.72772578  0.47331795  0.66296408    -0.57600
Mn1488     Mn  0.76782253  0.04382507  0.70783638     1.20200
Mn1489     Mn  0.70781849  0.50087017  0.72607298     1.10100
Cl1490     Cl  0.75064322  0.00921526  0.75099746    -0.85600
C1491       C  0.75044173  0.47797742  0.64365210     0.96700
C1492       C  0.68408052  0.09158224  0.67901695     0.96500
C1493       C  0.82896676  0.13403869  0.76802108    -0.18200
C1494       C  0.85358192  0.14550181  0.76742160     0.05900
C1495       C  0.88439614  0.15184183  0.76371576     0.07800
C1496       C  0.91029251  0.15607617  0.75740377    -0.19000
C1497       C  0.60013006  0.35401921  0.75633631    -0.18200
C1498       C  0.62591908  0.36112518  0.75187748     0.05900
C1499       C  0.65603552  0.37077862  0.74857987     0.07800
C1500       C  0.67988554  0.38376858  0.74707240    -0.19000
C1501       C  0.75516385  0.45913618  0.61755735    -0.18200
C1502       C  0.75749779  0.44099958  0.59729145     0.05900
C1503       C  0.75932612  0.41773735  0.57538807     0.07800
C1504       C  0.76092458  0.39661759  0.55820978    -0.19000
C1505       C  0.74717778  0.05873672  0.88821463    -0.18200
C1506       C  0.74193063  0.07637027  0.90803239     0.05900
C1507       C  0.73632130  0.09854048  0.92988167     0.07800
C1508       C  0.73237999  0.11860318  0.94758330    -0.19000
C1509       C  0.63565355  0.22875087  0.80145019    -0.18200
C1510       C  0.65910102  0.22884467  0.81660483     0.05900
C1511       C  0.68011278  0.23228938  0.84149434     0.07800
C1512       C  0.69185274  0.23708749  0.86637020    -0.19000
C1513       C  0.85991931  0.26388902  0.70271912    -0.18200
C1514       C  0.83500336  0.26540055  0.69056181     0.05900
C1515       C  0.81159931  0.26802309  0.66784312     0.07800
C1516       C  0.79825640  0.26884930  0.64322973    -0.19000
C1517       C  0.90514979  0.10285538  0.95240400    -0.18200
C1518       C  0.89195556  0.12661309  0.95374438     0.05900
C1519       C  0.87604003  0.15316739  0.96038321     0.07800
C1520       C  0.86097699  0.17327428  0.97013430    -0.19000
C1521       C  0.60391168  0.42135583  0.52719606    -0.18200
C1522       C  0.60857009  0.39465994  0.52558046     0.05900
C1523       C  0.61581363  0.36387346  0.52315737     0.07800
C1524       C  0.62800874  0.34016461  0.51864098    -0.19000
C1525       C  0.61462831  0.00595839  0.80712227    -0.18200
C1526       C  0.59550450  0.99813787  0.82435185     0.05900
C1527       C  0.58802869  0.47895211  0.85689375     0.07800
C1528       C  0.57511309  0.47303453  0.87987731    -0.19000
C1529       C  0.89086122  0.51521272  0.69498875    -0.18200
C1530       C  0.90842936  0.52373576  0.67655606     0.05900
C1531       C  0.92286793  0.03301813  0.65531411     0.08800
C1532       C  0.93498017  0.04000172  0.63213726    -0.19000
C1533       C  0.52866193  0.32832803  0.62292326    -0.18200
C1534       C  0.00175375  0.33598171  0.59007138     0.05900
C1535       C  0.99173408  0.35982649  0.57083798     0.07800
C1536       C  0.98481548  0.38455283  0.56144628    -0.19000
C1537       C  0.50268091  0.13037775  0.93756491    -0.18200
C1538       C  0.02062851  0.15788115  0.92910601     0.05900
C1539       C  0.00642728  0.17852297  0.90829603     0.07800
C1540       C  0.99722269  0.19183934  0.88549546    -0.19000
C1541       C  0.64176388  0.11181867  0.64111063    -0.16100
C1542       C  0.66539276  0.11667358  0.66214872    -0.31300
H1543       H  0.63723883  0.08819371  0.63599029     0.12900
H1544       H  0.67165655  0.13989511  0.66708781     0.13500
C1545       C  0.57799046  0.17208720  0.64710671    -0.16100
C1546       C  0.60176951  0.15215008  0.65198108    -0.31300
H1547       H  0.57142494  0.17769494  0.62332315     0.12900
H1548       H  0.60849171  0.14641561  0.67573834     0.13500
C1549       C  0.66367609  0.16497799  0.59907540    -0.16100
C1550       C  0.63333919  0.16079205  0.60389639    -0.31300
H1551       H  0.67947625  0.15033057  0.61148887     0.12900
H1552       H  0.61768229  0.17603158  0.59186251     0.13500
C1553       C  0.59944350  0.10287159  0.57922496    -0.16100
C1554       C  0.59448878  0.11727435  0.60622107    -0.31300
H1555       H  0.62111005  0.10642996  0.56898828     0.12900
H1556       H  0.57215739  0.11468329  0.61541813     0.13500
C1557       C  0.89943382  0.39602935  0.89661161    -0.16100
C1558       C  0.90155290  0.40251496  0.92727135    -0.31300
H1559       H  0.91349519  0.40948973  0.88172808     0.12900
H1560       H  0.88786781  0.38947668  0.94275949     0.13500
C1561       C  0.83222887  0.34289565  0.90358397    -0.16100
C1562       C  0.86270255  0.34987352  0.90389950    -0.31300
H1563       H  0.81739807  0.35353420  0.88607505     0.12900
H1564       H  0.87717989  0.33878148  0.92155791     0.13500
C1565       C  0.85554574  0.38656222  0.85612660    -0.16100
C1566       C  0.85270185  0.41708385  0.85013222    -0.31300
H1567       H  0.84076605  0.37167760  0.84267387     0.12900
H1568       H  0.86841455  0.43224021  0.86196150     0.13500
C1569       C  0.90275357  0.35038886  0.86373038    -0.16100
C1570       C  0.90529480  0.34701092  0.83270394    -0.31300
H1571       H  0.91948484  0.33862482  0.87873754     0.12900
H1572       H  0.88904619  0.35895423  0.81739147     0.13500
C1573       C  0.88169500  0.87757325  0.38039122    -0.02100
C1574       C  0.62697305  0.63709999  0.12986633    -0.02100
N1575       N  0.54724580  0.99327755  0.44420495    -0.05800
N1576       N  0.56956396  0.98402918  0.42743144    -0.57900
N1577       N  0.00940426  0.55674134  0.44511500    -0.05400
N1578       N  0.99812517  0.58235196  0.43372395    -0.60000
N1579       N  0.52822737  0.56708575  0.46552035    -0.05000
N1580       N  0.53365759  0.59647464  0.46463030    -0.57900
N1581       N  0.52085505  0.98844793  0.42944805    -0.04700
N1582       N  0.02747653  0.97122624  0.41316393    -0.60400
C1583       C  0.55534605  0.97299512  0.40188594     0.96400
C1584       C  0.50911653  0.60773313  0.44858013     0.96200
N1585       N  0.93051714  0.53297098  0.48263024    -0.05900
N1586       N  0.90984415  0.54542246  0.00635859    -0.58500
N1587       N  0.95534692  0.96968812  0.45156975    -0.04100
N1588       N  0.94426581  0.95224649  0.42891537    -0.59700
N1589       N  0.94280206  0.96241126  0.47752207    -0.06000
N1590       N  0.92328164  0.93986336  0.47305011    -0.58700
N1591       N  0.94398206  0.53836995  0.45681005    -0.03700
N1592       N  0.93290751  0.56293989  0.44292109    -0.59800
Mn1593     Mn  0.98425352  0.51366008  0.44463128     1.18400
C1594       C  0.91144276  0.57208437  0.46168452     0.98500
C1595       C  0.92425149  0.93334978  0.44266361     0.99200
N1596       N  0.56358184  0.55454744  0.03291358    -0.06000
N1597       N  0.58453953  0.57552583  0.03876319    -0.62300
N1598       N  0.56320556  0.97909216  0.04225519    -0.04800
N1599       N  0.57458689  0.95306007  0.05256217    -0.63000
N1600       N  0.57205517  0.98508146  0.51340587    -0.05500
N1601       N  0.59162715  0.96363729  0.50682626    -0.62600
N1602       N  0.55012932  0.54719430  0.05837350    -0.04400
N1603       N  0.56173002  0.56321981  0.08185843    -0.63300
Mn1604     Mn  0.55424759  0.53187684  0.49093003     1.10700
C1605       C  0.58303866  0.58139343  0.06927299     0.99700
C1606       C  0.59347197  0.94502052  0.03068631     0.99800
N1607       N  0.97271226  0.95825303  0.03229471    -0.05500
N1608       N  0.96435235  0.92961080  0.03107470    -0.60900
N1609       N  0.98004244  0.51788598  0.07462494    -0.04800
N1610       N  0.97695883  0.52950760  0.10198479    -0.57600
N1611       N  0.95326988  0.51204126  0.06130439    -0.06100
N1612       N  0.93153838  0.51991999  0.07946787    -0.60500
N1613       N  0.99735226  0.96137355  0.05045209    -0.05100
N1614       N  0.51369177  0.93168363  0.06804779    -0.57600
Mn1615     Mn  0.95414024  0.99576627  0.00431937     1.20200
Mn1616     Mn  0.52285498  0.00123579  0.05865081     1.10100
Cl1617     Cl  0.00172510  0.50981947  0.50105003    -0.85600
C1618       C  0.98546026  0.91556476  0.04965091     0.96700
C1619       C  0.94665810  0.53121255  0.10438204     0.96500
N1620       N  0.80938394  0.70908887  0.51162084    -0.05800
N1621       N  0.82288891  0.68535074  0.50055665    -0.57900
N1622       N  0.80085553  0.76825968  0.07538880    -0.05400
N1623       N  0.80559070  0.78433958  0.10039671    -0.60000
N1624       N  0.78590689  0.74331562  0.08200489    -0.05000
N1625       N  0.78037420  0.74191915  0.11154429    -0.57900
N1626       N  0.82331988  0.73418493  0.50332712    -0.04700
N1627       N  0.84664386  0.72781020  0.48643459    -0.60400
C1628       C  0.84581480  0.69730471  0.48509601     0.96400
C1629       C  0.79235582  0.76785012  0.12245877     0.96200
N1630       N  0.76648011  0.83415518  0.01583401    -0.05900
N1631       N  0.75604967  0.86081182  0.02375459    -0.58500
N1632       N  0.80917672  0.79838664  0.46649069    -0.04100
N1633       N  0.83273036  0.81122116  0.45281441    -0.59700
N1634       N  0.78359005  0.80625898  0.45155570    -0.06000
N1635       N  0.78939014  0.82407963  0.42763381    -0.58700
N1636       N  0.78950505  0.82572158  0.03426606    -0.03700
N1637       N  0.79537449  0.84639019  0.05525637    -0.59800
Mn1638     Mn  0.81191511  0.78206877  0.02796562     1.18400
C1639       C  0.77436464  0.86807111  0.04824925     0.98500
C1640       C  0.82011887  0.82705400  0.42806948     0.99200
N1641       N  0.72411999  0.70958790  0.06419069    -0.06000
N1642       N  0.71560291  0.69523527  0.08939881    -0.62300
N1643       N  0.72065220  0.68789319  0.48510822    -0.04800
N1644       N  0.71219122  0.66853918  0.46361037    -0.63000
N1645       N  0.74596987  0.67886429  0.49961738    -0.05500
N1646       N  0.75536007  0.65302247  0.48841846    -0.62600
N1647       N  0.70025942  0.71663801  0.04614165    -0.04400
N1648       N  0.67501734  0.70632928  0.05882027    -0.63300
Mn1649     Mn  0.77102191  0.71147523  0.04659381     1.10700
C1650       C  0.68489057  0.69319302  0.08624674     0.99700
C1651       C  0.73395468  0.64691471  0.46611179     0.99800
N1652       N  0.71918908  0.77200730  0.44045018    -0.05500
N1653       N  0.71997861  0.77489529  0.41027339    -0.60900
N1654       N  0.68960598  0.77927277  0.00455626    -0.04800
N1655       N  0.66297608  0.78666350  0.01528424    -0.57600
N1656       N  0.70468407  0.80391772  0.99693503    -0.06100
N1657       N  0.68882348  0.82828477  0.00249325    -0.60500
N1658       N  0.70453357  0.74714155  0.44815320    -0.05100
N1659       N  0.69532479  0.73262288  0.42318176    -0.57600
Mn1660     Mn  0.73903160  0.80260861  0.47480067     1.20200
Mn1661     Mn  0.69962181  0.73116639  0.49648898     1.10100
Cl1662     Cl  0.76061000  0.75800989  0.01235691    -0.85600
C1663       C  0.70539410  0.75001938  0.39998929     0.96700
C1664       C  0.66315838  0.81728443  0.01381798     0.96500
N1665       N  0.93672920  0.76497557  0.20563016    -0.05800
N1666       N  0.90841979  0.75572658  0.20126193    -0.57900
N1667       N  0.99752003  0.80513985  0.18868125    -0.05400
N1668       N  0.51430443  0.82492421  0.16586296    -0.60000
N1669       N  0.99750526  0.77821567  0.17612532    -0.05000
N1670       N  0.51574940  0.77847838  0.14631143    -0.57900
N1671       N  0.93713006  0.79176519  0.21854275    -0.04700
N1672       N  0.90931404  0.80117554  0.22328933    -0.60400
C1673       C  0.89184253  0.77836532  0.21263681     0.96400
C1674       C  0.52294557  0.80772037  0.14231615     0.96200
N1675       N  0.53734112  0.82358187  0.27323025    -0.05900
N1676       N  0.56524229  0.83384778  0.27706291    -0.58500
N1677       N  0.95939618  0.82069531  0.28032283    -0.04100
N1678       N  0.93572377  0.83791789  0.28624286    -0.59700
N1679       N  0.97155389  0.80885293  0.30596829    -0.06000
N1680       N  0.95628835  0.81836803  0.32997810    -0.58700
N1681       N  0.52458817  0.83402500  0.24729897    -0.03700
N1682       N  0.54374396  0.85158995  0.23275665    -0.59800
Mn1683     Mn  0.97933772  0.81294580  0.23449773     1.18400
C1684       C  0.56872945  0.85156640  0.25203741     0.98500
C1685       C  0.93359148  0.83654706  0.31725352     0.99200
N1686       N  0.52889217  0.71367419  0.19035627    -0.06000
N1687       N  0.54168427  0.70573325  0.16468210    -0.62300
N1688       N  0.97290923  0.68829561  0.24707044    -0.04800
N1689       N  0.95362705  0.67095796  0.26171798    -0.63000
N1690       N  0.95949282  0.70026425  0.22215698    -0.05500
N1691       N  0.93109342  0.69120814  0.21902903    -0.62600
N1692       N  0.54427977  0.70238057  0.21454519    -0.04400
N1693       N  0.56798599  0.68628366  0.20537147    -0.63300
Mn1694     Mn  0.97885064  0.73868220  0.19832144     1.10700
C1695       C  0.56628938  0.68873993  0.17388260     0.99700
C1696       C  0.92790370  0.67272837  0.24352925     0.99800
N1697       N  0.50175554  0.74417429  0.31920647    -0.05500
N1698       N  0.98731353  0.73845992  0.35129244    -0.60900
N1699       N  0.56470358  0.73380893  0.27872489    -0.04800
N1700       N  0.59321508  0.72452185  0.27902468    -0.57600
N1701       N  0.56264939  0.76031342  0.29208535    -0.06100
N1702       N  0.58992701  0.76955001  0.30147019    -0.60500
N1703       N  0.50450382  0.71713919  0.30714307    -0.05100
N1704       N  0.98959252  0.69294595  0.32993061    -0.57600
Mn1705     Mn  0.51883863  0.78473759  0.29749811     1.20200
Mn1706     Mn  0.52446243  0.70951381  0.26166567     1.10100
Cl1707     Cl  0.99763558  0.75975221  0.24977023    -0.85600
C1708       C  0.98300027  0.70855260  0.35524482     0.96700
C1709       C  0.60858962  0.74728163  0.29278693     0.96500
N1710       N  0.79130343  0.95731670  0.30311518    -0.05800
N1711       N  0.80133140  0.93386541  0.32081228    -0.57900
N1712       N  0.77015299  0.51994589  0.32565777    -0.05400
N1713       N  0.77290256  0.54227168  0.34529815    -0.60000
N1714       N  0.74608452  0.50350984  0.33103318    -0.05000
N1715       N  0.73183159  0.51431295  0.35463527    -0.57900
N1716       N  0.81435682  0.97503975  0.29682995    -0.04700
N1717       N  0.83987776  0.96391182  0.31006161    -0.60400
C1718       C  0.83210581  0.93772517  0.32448965     0.96400
C1719       C  0.74905636  0.53831070  0.36330512     0.96200
N1720       N  0.77669079  0.56810190  0.24306439    -0.05900
N1721       N  0.78271963  0.59684129  0.23713100    -0.58500
N1722       N  0.82891354  0.01945623  0.23798762    -0.04100
N1723       N  0.85766416  0.01301828  0.23308300    -0.59700
N1724       N  0.81480716  0.02883575  0.21212532    -0.06000
N1725       N  0.83328291  0.02837628  0.18929920    -0.58700
N1726       N  0.78956520  0.55970639  0.26992667    -0.03700
N1727       N  0.80384417  0.58278767  0.28267571    -0.59800
Mn1728     Mn  0.79685215  0.51200981  0.28539512     1.18400
C1729       C  0.79904814  0.60583566  0.26236233     0.98500
C1730       C  0.85960765  0.01823664  0.20247096     0.99200
N1731       N  0.68714254  0.48569054  0.29258394    -0.06000
N1732       N  0.66674074  0.48516563  0.31365952    -0.62300
N1733       N  0.71416259  0.95509836  0.23515514    -0.04800
N1734       N  0.69905005  0.93321479  0.22131180    -0.63000
N1735       N  0.72693815  0.94511836  0.26153168    -0.05500
N1736       N  0.71967028  0.91640870  0.26610009    -0.62600
N1737       N  0.67437517  0.49302683  0.26547469    -0.04400
N1738       N  0.64481976  0.49717013  0.26765173    -0.63300
Mn1739     Mn  0.74335530  0.97723853  0.29692419     1.10700
C1740       C  0.64077546  0.49269737  0.29795310     0.99700
C1741       C  0.70288251  0.90918825  0.24045010     0.99800
N1742       N  0.75447998  0.01491425  0.17525785    -0.05500
N1743       N  0.76762885  0.00584613  0.15029578    -0.60900
N1744       N  0.69098441  0.53569542  0.20791028    -0.04800
N1745       N  0.66492832  0.54785301  0.19727700    -0.57600
N1746       N  0.71388658  0.55345391  0.20139060    -0.06100
N1747       N  0.70346263  0.57791827  0.18561610    -0.60500
N1748       N  0.73090557  0.99788103  0.18074772    -0.05100
N1749       N  0.72726516  0.97691741  0.15973695    -0.57600
Mn1750     Mn  0.76185092  0.53439499  0.20908413     1.20200
Mn1751     Mn  0.70636313  0.00315286  0.22268332     1.10100
Cl1752     Cl  0.74779504  0.50034483  0.25438160    -0.85600
C1753       C  0.75007487  0.98242094  0.14078644     0.96700
C1754       C  0.67260473  0.57430915  0.18341151     0.96500
C1755       C  0.82001672  0.63039512  0.26145894    -0.18200
C1756       C  0.84321154  0.64448249  0.25989046     0.05900
C1757       C  0.87306786  0.65490657  0.25669794     0.07800
C1758       C  0.89879186  0.66210781  0.25208220    -0.19000
C1759       C  0.59801863  0.86196136  0.24390709    -0.18200
C1760       C  0.62437281  0.86757082  0.24061972     0.05900
C1761       C  0.65540303  0.87483062  0.23981966     0.07800
C1762       C  0.68015009  0.88624109  0.24024902    -0.19000
C1763       C  0.75746771  0.96235896  0.11672175    -0.18200
C1764       C  0.76271023  0.94271002  0.09888006     0.05900
C1765       C  0.76777380  0.91761769  0.08021185     0.07800
C1766       C  0.77123191  0.89524062  0.06535089    -0.19000
C1767       C  0.74212573  0.55870030  0.38741501    -0.18200
C1768       C  0.73852997  0.57751960  0.40669816     0.05900
C1769       C  0.73620149  0.60078818  0.42837658     0.07800
C1770       C  0.73505872  0.62141398  0.44611164    -0.19000
C1771       C  0.63965598  0.74502314  0.30338324    -0.18200
C1772       C  0.66298422  0.74356666  0.31868085     0.05900
C1773       C  0.68454184  0.74345244  0.34339270     0.07800
C1774       C  0.69702402  0.74534503  0.36836657    -0.19000
C1775       C  0.85948021  0.77954072  0.21011495    -0.18200
C1776       C  0.83354373  0.77964854  0.20054092     0.05900
C1777       C  0.80903886  0.77769545  0.17910182     0.07800
C1778       C  0.79664665  0.77398370  0.15439337    -0.19000
C1779       C  0.89774289  0.60122435  0.45845112    -0.18200
C1780       C  0.88902012  0.62694256  0.45724790     0.05900
C1781       C  0.87847583  0.65655253  0.46053562     0.07800
C1782       C  0.86597030  0.67876507  0.46906204    -0.19000
C1783       C  0.60560440  0.91508480  0.02937031    -0.18200
C1784       C  0.61381005  0.88916091  0.02863173     0.05900
C1785       C  0.62505713  0.85951664  0.02659872     0.07800
C1786       C  0.63938136  0.83692445  0.02241647    -0.19000
C1787       C  0.61227961  0.48822711  0.31124863    -0.18200
C1788       C  0.59405509  0.48115357  0.32959229     0.05900
C1789       C  0.58392767  0.97749659  0.35102493     0.07800
C1790       C  0.57024559  0.97156712  0.37356026    -0.19000
C1791       C  0.88703438  0.02048525  0.18642018    -0.18200
C1792       C  0.90450200  0.02726352  0.16707264     0.05900
C1793       C  0.92071725  0.52757015  0.15685132     0.08800
C1794       C  0.93322663  0.53266816  0.13344078    -0.19000
C1795       C  0.52890554  0.81998860  0.11289810    -0.18200
C1796       C  0.00172806  0.83765617  0.08921109     0.05900
C1797       C  0.99283132  0.85986913  0.06742254     0.07800
C1798       C  0.98703425  0.88390840  0.05553931    -0.19000
C1799       C  0.50443345  0.63875535  0.44048964    -0.18200
C1800       C  0.00258047  0.65812256  0.42826668     0.05900
C1801       C  0.99018614  0.68005313  0.40772663     0.07800
C1802       C  0.98327792  0.69464189  0.38500169    -0.19000
C1803       C  0.65315487  0.61677406  0.14525883    -0.16100
C1804       C  0.64879339  0.59507016  0.16744259    -0.31300
H1805       H  0.67615943  0.62000147  0.13802269     0.12900
H1806       H  0.62558447  0.59114722  0.17374787     0.13500
C1807       C  0.58592116  0.67324596  0.15053361    -0.16100
C1808       C  0.61102446  0.65517335  0.15573433    -0.31300
H1809       H  0.57801681  0.67639744  0.12658692     0.12900
H1810       H  0.61940386  0.65192866  0.17950397     0.13500
C1811       C  0.66632296  0.67676669  0.11034402    -0.16100
C1812       C  0.64079874  0.65947718  0.10533059    -0.31300
H1813       H  0.67688384  0.67582601  0.13338652     0.12900
H1814       H  0.63104685  0.65930443  0.08193598     0.13500
C1815       C  0.60644130  0.60088515  0.08666905    -0.16100
C1816       C  0.60255924  0.61605250  0.11341123    -0.31300
H1817       H  0.62795523  0.60394833  0.07567547     0.12900
H1818       H  0.58044398  0.61407715  0.12346538     0.13500
C1819       C  0.90137821  0.90312025  0.39662456    -0.16100
C1820       C  0.90416359  0.90915527  0.42742284    -0.31300
H1821       H  0.91492690  0.91694314  0.38157773     0.12900
H1822       H  0.89071846  0.89591711  0.44298731     0.13500
C1823       C  0.83579465  0.84833079  0.40536616    -0.16100
C1824       C  0.86603276  0.85609009  0.40477950    -0.31300
H1825       H  0.82039859  0.85849769  0.38797288     0.12900
H1826       H  0.88112883  0.84553680  0.42229861     0.13500
C1827       C  0.85731477  0.89207624  0.35609386    -0.16100
C1828       C  0.85375012  0.92242548  0.34875120    -0.31300
H1829       H  0.84285683  0.87642849  0.34327630     0.12900
H1830       H  0.86928921  0.93813441  0.35998141     0.13500
C1831       C  0.90570476  0.85721261  0.36430995    -0.16100
C1832       C  0.90912152  0.85429956  0.33334880    -0.31300
H1833       H  0.92222550  0.84542013  0.37954189     0.12900
H1834       H  0.89337736  0.86667039  0.31784116     0.13500
C1835       C  0.87770202  0.88129892  0.88189353    -0.02100
C1836       C  0.62457468  0.63660789  0.63470089    -0.02100
N1837       N  0.54814626  0.99503166  0.94690043    -0.05800
N1838       N  0.57007039  0.98931217  0.92809598    -0.57900
N1839       N  0.99786318  0.55454083  0.94954461    -0.05400
N1840       N  0.98512659  0.58016951  0.93985374    -0.60000
N1841       N  0.53505278  0.56258720  0.96369850    -0.05000
N1842       N  0.54180876  0.59173942  0.96399504    -0.57900
N1843       N  0.52156241  0.98842244  0.93338114    -0.04700
N1844       N  0.03929872  0.97180710  0.90894009    -0.60400
C1845       C  0.55543193  0.97850770  0.90264544     0.96400
C1846       C  0.51882786  0.60448272  0.94663569     0.96200
N1847       N  0.92559289  0.52319851  0.99469196    -0.05900
N1848       N  0.90978706  0.55394482  0.48697292    -0.58500
N1849       N  0.96656449  0.97485685  0.93808759    -0.04100
N1850       N  0.95837764  0.95900969  0.91350619    -0.59700
N1851       N  0.95020312  0.96708648  0.96145219    -0.06000
N1852       N  0.93035655  0.94562819  0.95289514    -0.58700
N1853       N  0.93540210  0.53154058  0.96775893    -0.03700
N1854       N  0.92619594  0.55921531  0.96041610    -0.59800
Mn1855     Mn  0.97493623  0.51000881  0.94907103     1.18400
C1856       C  0.91000669  0.56740847  0.98434595     0.98500
C1857       C  0.93591099  0.94049957  0.92277211     0.99200
N1858       N  0.56000716  0.56105459  0.53325269    -0.06000
N1859       N  0.57836314  0.58450141  0.53815309    -0.62300
N1860       N  0.55995810  0.97893372  0.53979479    -0.04800
N1861       N  0.57101724  0.95349542  0.55192347    -0.63000
N1862       N  0.57420471  0.98649378  0.01559225    -0.05500
N1863       N  0.59320666  0.96534948  0.00704150    -0.62600
N1864       N  0.54874799  0.55207605  0.55937562    -0.04400
N1865       N  0.55943612  0.56912591  0.58241431    -0.63300
Mn1866     Mn  0.55725244  0.52558518  0.99061041     1.10700
C1867       C  0.57772049  0.58976086  0.56888146     0.99700
C1868       C  0.59093896  0.94445426  0.53143773     0.99800
N1869       N  0.97145606  0.95396236  0.54564505    -0.05500
N1870       N  0.96496341  0.92484512  0.54365221    -0.60900
N1871       N  0.97859056  0.52836621  0.56851557    -0.04800
N1872       N  0.97486190  0.53993497  0.59569960    -0.57600
N1873       N  0.95216882  0.52435463  0.55361379    -0.06100
N1874       N  0.93004065  0.53298526  0.57104128    -0.60500
N1875       N  0.99711697  0.95788774  0.56196404    -0.05100
N1876       N  0.50808366  0.93320901  0.56296678    -0.57600
Mn1877     Mn  0.95005751  0.99144609  0.51937694     1.20200
Mn1878     Mn  0.51966969  0.00264607  0.55387936     1.10100
Cl1879     Cl  0.99850676  0.50410608  0.00368305    -0.85600
C1880       C  0.98822975  0.91151337  0.56000174     0.96700
C1881       C  0.94465930  0.54315705  0.59686088     0.96500
N1882       N  0.81700479  0.71231519  0.02928081    -0.05800
N1883       N  0.83325814  0.68803705  0.02448202    -0.57900
N1884       N  0.80080044  0.76248435  0.56301348    -0.05400
N1885       N  0.80829395  0.77792812  0.58786719    -0.60000
N1886       N  0.78658991  0.73736784  0.57067239    -0.05000
N1887       N  0.78432320  0.73527314  0.60079227    -0.57900
N1888       N  0.83207894  0.73697595  0.02194933    -0.04700
N1889       N  0.85908910  0.72975352  0.01198247    -0.60400
C1890       C  0.85920153  0.69914626  0.01389271     0.96400
C1891       C  0.79769425  0.76084838  0.61096987     0.96200
N1892       N  0.75923758  0.83054888  0.51167308    -0.05900
N1893       N  0.74935633  0.85615328  0.52287232    -0.58500
N1894       N  0.82083018  0.79811585  0.97948644    -0.04100
N1895       N  0.84676456  0.80802227  0.96848473    -0.59700
N1896       N  0.79779331  0.80693511  0.96099310    -0.06000
N1897       N  0.80786134  0.82311520  0.93737399    -0.58700
N1898       N  0.78434444  0.82163620  0.52663086    -0.03700
N1899       N  0.79225474  0.84085581  0.54841621    -0.59800
Mn1900     Mn  0.80567055  0.77886848  0.51502172     1.18400
C1901       C  0.77027534  0.86222500  0.54561197     0.98500
C1902       C  0.83866028  0.82339298  0.94193218     0.99200
N1903       N  0.72251556  0.70369245  0.55990143    -0.06000
N1904       N  0.71692222  0.68617428  0.58409441    -0.62300
N1905       N  0.73206423  0.69048298  0.99031752    -0.04800
N1906       N  0.72696466  0.67063375  0.96834955    -0.63000
N1907       N  0.75534400  0.68200104  0.00847079    -0.05500
N1908       N  0.76664696  0.65607134  0.99926471    -0.62600
N1909       N  0.69678403  0.71227858  0.54561077    -0.04400
N1910       N  0.67332662  0.70030941  0.56017705    -0.63300
Mn1911     Mn  0.76679115  0.70690714  0.53618303     1.10700
C1912       C  0.68617676  0.68430577  0.58472666     0.99700
C1913       C  0.74856387  0.64927440  0.97433626     0.99800
N1914       N  0.73341770  0.77370069  0.94278501    -0.05500
N1915       N  0.73252680  0.77835880  0.91267530    -0.60900
N1916       N  0.68151413  0.77641750  0.50690569    -0.04800
N1917       N  0.65600969  0.78385994  0.52000583    -0.57600
N1918       N  0.69600512  0.80106513  0.49827717    -0.06100
N1919       N  0.68097504  0.82543339  0.50548840    -0.60500
N1920       N  0.71829613  0.74890962  0.94978445    -0.05100
N1921       N  0.70727805  0.73621083  0.92446069    -0.57600
Mn1922     Mn  0.75030813  0.80485470  0.97832122     1.20200
Mn1923     Mn  0.70898594  0.73386758  0.99753069     1.10100
Cl1924     Cl  0.75272194  0.75485771  0.50564042    -0.85600
C1925       C  0.71667558  0.75446978  0.90164337     0.96700
C1926       C  0.65641310  0.81452831  0.51896682     0.96500
N1927       N  0.93830122  0.76629642  0.70995371    -0.05800
N1928       N  0.91055220  0.75708151  0.70249869    -0.57900
N1929       N  0.99946505  0.80711399  0.69488169    -0.05400
N1930       N  0.50436549  0.82521132  0.66679347    -0.60000
N1931       N  0.00001239  0.77995504  0.68293612    -0.05000
N1932       N  0.50825002  0.77863008  0.64794454    -0.57900
N1933       N  0.93746305  0.79335789  0.72212386    -0.04700
N1934       N  0.90915761  0.80306768  0.72328002    -0.60400
C1935       C  0.89280414  0.78000742  0.71125831     0.96400
C1936       C  0.51178894  0.80839574  0.64253260     0.96200
N1937       N  0.53320151  0.82492403  0.77587500    -0.05900
N1938       N  0.56149913  0.83444418  0.77798165    -0.58500
N1939       N  0.95735333  0.82280094  0.78480233    -0.04100
N1940       N  0.93358214  0.84014529  0.79001067    -0.59700
N1941       N  0.96912728  0.81140479  0.81087626    -0.06000
N1942       N  0.95346286  0.82136716  0.83440295    -0.58700
N1943       N  0.51984297  0.83418051  0.74971732    -0.03700
N1944       N  0.53900524  0.85004925  0.73341751    -0.59800
Mn1945     Mn  0.97885283  0.81540945  0.73962890     1.18400
C1946       C  0.56460916  0.85039571  0.75172315     0.98500
C1947       C  0.93093815  0.83925489  0.82096314     0.99200
N1948       N  0.52834152  0.71458413  0.69577849    -0.06000
N1949       N  0.54071052  0.70616029  0.67008383    -0.62300
N1950       N  0.97627247  0.69108726  0.75459803    -0.04800
N1951       N  0.95702999  0.67557015  0.77111093    -0.63000
N1952       N  0.96219069  0.70253189  0.72973479    -0.05500
N1953       N  0.93334692  0.69476977  0.72860537    -0.62600
N1954       N  0.54413392  0.70386450  0.72002240    -0.04400
N1955       N  0.56765116  0.68753749  0.71075924    -0.63300
Mn1956     Mn  0.98092300  0.74080488  0.70490064     1.10700
C1957       C  0.56539529  0.68936190  0.67922938     0.99700
C1958       C  0.93062139  0.67771393  0.75420429     0.99800
N1959       N  0.50044311  0.74551805  0.82464500    -0.05500
N1960       N  0.98647805  0.74143073  0.85751846    -0.60900
N1961       N  0.56406863  0.73678381  0.78482898    -0.04800
N1962       N  0.59281334  0.72803206  0.78713601    -0.57600
N1963       N  0.56071851  0.76332476  0.79783202    -0.06100
N1964       N  0.58722654  0.77314633  0.80887798    -0.60500
N1965       N  0.50423510  0.71850750  0.81280360    -0.05100
N1966       N  0.99166554  0.69603181  0.83641349    -0.57600
Mn1967     Mn  0.51602483  0.78637354  0.80176844     1.20200
Mn1968     Mn  0.52447344  0.71105460  0.76736414     1.10100
Cl1969     Cl  0.99823786  0.76294697  0.75613827    -0.85600
C1970       C  0.98341896  0.71132471  0.86132781     0.96700
C1971       C  0.60690206  0.75117577  0.80173424     0.96500
N1972       N  0.77925756  0.95174941  0.80171548    -0.05800
N1973       N  0.78555180  0.92641004  0.81769190    -0.57900
N1974       N  0.78335838  0.52702075  0.82835838    -0.05400
N1975       N  0.78824635  0.54762263  0.84960163    -0.60000
N1976       N  0.75937914  0.51070626  0.83421610    -0.05000
N1977       N  0.74723768  0.51993126  0.85973832    -0.57900
N1978       N  0.80437791  0.96735707  0.79833209    -0.04700
N1979       N  0.82800108  0.95283552  0.81231214    -0.60400
C1980       C  0.81609840  0.92686541  0.82405869     0.96400
C1981       C  0.76571242  0.54281522  0.86909073     0.96200
N1982       N  0.78812819  0.57729285  0.74675522    -0.05900
N1983       N  0.79105406  0.60693425  0.74369371    -0.58500
N1984       N  0.82416686  0.01067948  0.74083413    -0.04100
N1985       N  0.85304466  0.00337762  0.73813765    -0.59700
N1986       N  0.81216842  0.02070453  0.71418770    -0.06000
N1987       N  0.83241078  0.01975443  0.69296063    -0.58700
N1988       N  0.80049966  0.56796326  0.77341505    -0.03700
N1989       N  0.81152373  0.59099914  0.78901320    -0.59800
Mn1990     Mn  0.80778832  0.52026542  0.78639175     1.18400
C1991       C  0.80504789  0.61514394  0.77058243     0.98500
C1992       C  0.85745935  0.00862228  0.70799797     0.99200
N1993       N  0.69861889  0.49727353  0.79619962    -0.06000
N1994       N  0.67886940  0.49667151  0.81793958    -0.62300
N1995       N  0.70599173  0.95336028  0.73139122    -0.04800
N1996       N  0.69235860  0.93137438  0.71619846    -0.63000
N1997       N  0.71747781  0.94315256  0.75814522    -0.05500
N1998       N  0.71114582  0.91411621  0.76163712    -0.62600
N1999       N  0.68530876  0.50638642  0.76976492    -0.04400
N2000       N  0.65607456  0.51145807  0.77322933    -0.63300
Mn2001     Mn  0.73346543  0.97454613  0.79402888     1.10700
C2002       C  0.65275493  0.50588568  0.80350647     0.99700
C2003       C  0.69610646  0.90699309  0.73495777     0.99800
N2004       N  0.75297865  0.00959758  0.67427910    -0.05500
N2005       N  0.76797053  0.99820841  0.65149248    -0.60900
N2006       N  0.70199440  0.54991710  0.71058044    -0.04800
N2007       N  0.67749938  0.56463629  0.69882461    -0.57600
N2008       N  0.72647597  0.56619255  0.70624604    -0.06100
N2009       N  0.71903320  0.59232160  0.69224522    -0.60500
N2010       N  0.72804294  0.99412566  0.67841602    -0.05100
N2011       N  0.72533496  0.97195432  0.65861409    -0.57600
Mn2012     Mn  0.77250561  0.54471787  0.71177081     1.20200
Mn2013     Mn  0.70127494  0.00158005  0.71851349     1.10100
Cl2014     Cl  0.75789107  0.51022686  0.75632422    -0.85600
C2015       C  0.75014459  0.97505774  0.64182089     0.96700
C2016       C  0.68835981  0.59136068  0.68762295     0.96500
C2017       C  0.82285530  0.64182490  0.77344636    -0.18200
C2018       C  0.84553977  0.65673180  0.77424429     0.05900
C2019       C  0.87577069  0.66578322  0.77159126     0.07800
C2020       C  0.90165345  0.67046902  0.76556545    -0.19000
C2021       C  0.59383886  0.85838750  0.74135204    -0.18200
C2022       C  0.61992424  0.86287589  0.73583422     0.05900
C2023       C  0.65063593  0.87032687  0.73297655     0.07800
C2024       C  0.67475250  0.88287933  0.73301871    -0.19000
C2025       C  0.75831651  0.95353865  0.61936678    -0.18200
C2026       C  0.76317642  0.93358801  0.60174252     0.05900
C2027       C  0.76683225  0.90912690  0.58189260     0.07800
C2028       C  0.76876707  0.88784181  0.56520061    -0.19000
C2029       C  0.76084596  0.56178513  0.89509178    -0.18200
C2030       C  0.75803503  0.57979724  0.91541345     0.05900
C2031       C  0.75526485  0.60266159  0.93764181     0.07800
C2032       C  0.75263281  0.62332514  0.95523169    -0.19000
C2033       C  0.63801348  0.75053416  0.81293379    -0.18200
C2034       C  0.66232002  0.75087169  0.82674534     0.05900
C2035       C  0.68717983  0.75194572  0.84823197     0.07800
C2036       C  0.70383897  0.75307704  0.87087706    -0.19000
C2037       C  0.86092057  0.78116163  0.70404880    -0.18200
C2038       C  0.83654664  0.77912970  0.69084497     0.05900
C2039       C  0.81456663  0.77369699  0.66733960     0.07800
C2040       C  0.80318221  0.76775055  0.64263421    -0.19000
C2041       C  0.90359799  0.59851057  0.98984118    -0.18200
C2042       C  0.90058897  0.62520536  0.99366352     0.05900
C2043       C  0.89445415  0.65591171  0.99859515     0.07800
C2044       C  0.88256214  0.67944163  0.00450475    -0.19000
C2045       C  0.60328604  0.91447297  0.53240518    -0.18200
C2046       C  0.61085122  0.88828598  0.53360897     0.05900
C2047       C  0.62058890  0.85794843  0.53315730     0.07800
C2048       C  0.63358584  0.83449602  0.52915188    -0.19000
C2049       C  0.62442194  0.50027888  0.81694025    -0.18200
C2050       C  0.60533036  0.49072686  0.83327541     0.05900
C2051       C  0.57935339  0.98715656  0.84929608     0.07800
C2052       C  0.56834616  0.98018676  0.87315668    -0.19000
C2053       C  0.88642391  0.01205120  0.69524543    -0.18200
C2054       C  0.90590719  0.02088170  0.67900902     0.05900
C2055       C  0.92176211  0.53559255  0.65039125     0.08800
C2056       C  0.93109541  0.54269000  0.62586944    -0.19000
C2057       C  0.51421244  0.82072740  0.61237422    -0.18200
C2058       C  0.01409851  0.83574019  0.59649591     0.05900
C2059       C  0.00267541  0.85651454  0.57437345     0.07800
C2060       C  0.99325366  0.87989045  0.56344040    -0.19000
C2061       C  0.51448415  0.63610034  0.94103646    -0.18200
C2062       C  0.99288237  0.65712676  0.93328028     0.05900
C2063       C  0.98471990  0.68106895  0.91310502     0.07800
C2064       C  0.98116737  0.69704099  0.89070143    -0.19000
C2065       C  0.64645934  0.61206936  0.65048390    -0.16100
C2066       C  0.66975711  0.61667059  0.67163584    -0.31300
H2067       H  0.64172890  0.58848918  0.64529234     0.12900
H2068       H  0.67634523  0.63979431  0.67659913     0.13500
C2069       C  0.58471230  0.67382298  0.65571822    -0.16100
C2070       C  0.60828703  0.65388045  0.66082572    -0.31300
H2071       H  0.57777390  0.67852440  0.63182932     0.12900
H2072       H  0.61517995  0.64870994  0.68462564     0.13500
C2073       C  0.67066589  0.66234422  0.60685266    -0.16100
C2074       C  0.64032869  0.66020680  0.61256363    -0.31300
H2075       H  0.68607550  0.64687345  0.61932888     0.12900
H2076       H  0.62523934  0.67628062  0.60036122     0.13500
C2077       C  0.59834233  0.61257175  0.58533839    -0.16100
C2078       C  0.59983704  0.61762541  0.61633485    -0.31300
H2079       H  0.61411206  0.62451989  0.57103945     0.12900
H2080       H  0.58452958  0.60447679  0.63019783     0.13500
C2081       C  0.89486981  0.90128802  0.90657657    -0.16100
C2082       C  0.91869877  0.91983203  0.90049679    -0.31300
H2083       H  0.88742443  0.90054678  0.93006036     0.12900
H2084       H  0.92626461  0.92032221  0.87710160     0.13500
C2085       C  0.86123828  0.84099624  0.92289591    -0.16100
C2086       C  0.85402886  0.86121254  0.89936222    -0.31300
H2087       H  0.88505797  0.83801261  0.92969837     0.12900
H2088       H  0.83004636  0.86431060  0.89418914     0.13500
C2089       C  0.86169294  0.90389403  0.85716986    -0.16100
C2090       C  0.83223781  0.90318190  0.84511728    -0.31300
H2091       H  0.87567885  0.92224329  0.84893155     0.12900
H2092       H  0.81794388  0.88440893  0.85100440     0.13500
C2093       C  0.90169333  0.85998412  0.86707083    -0.16100
C2094       C  0.90706074  0.85824064  0.83637821    -0.31300
H2095       H  0.91550458  0.84568469  0.88277079     0.12900
H2096       H  0.89303908  0.87204938  0.82050623     0.13500
loop_ 
_geom_bond_atom_site_label_1 
_geom_bond_atom_site_label_2 
_geom_bond_distance 
_geom_bond_site_symmetry_2 
_ccdc_geom_bond_type 
C1          C247   1.585       .  S
C1          C252   1.593       .  S
C1          C255   1.594       .  S
C1          C259   1.584       .  S
C2          C231   1.589       .  S
C2          C236   1.581       .  S
C2          C240   1.601       .  S
C2          C244   1.576       .  S
N3            N4   1.321       .  A
N3            N9   1.319       .  A
N3         Mn556   2.233       .  S
N4           C11   1.353       .  A
N5            N6   1.316       .  A
N5         N1055   1.321       .  A
N5          Mn21   2.211       .  S
N6         C1060   1.345       .  A
N7            N8   1.321       .  A
N7         N1053   1.321       .  A
N7          Mn32   2.182       .  S
N8           C12   1.348       .  A
N9         N1058   1.316       .  A
N9        Mn1593   2.163   1_455  S
N10        N1057   1.314       .  A
N10        C1059   1.343       .  A
C11        N1058   1.344       .  A
C11         C218   1.425       .  S
C12        N1054   1.345       .  A
C12         C227   1.422       .  S
N13          N19   1.313       .  A
N13         N276   1.321       .  A
N13        Mn829   2.195   1_545  S
N14         N275   1.322       .  A
N14         C284   1.354       .  A
N15          N16   1.337       .  A
N15          N17   1.315       .  A
N15        Mn545   2.252       .  S
N16          C23   1.365       .  A
N17          N18   1.329       .  A
N17        Mn305   2.267       .  S
N18          C23   1.362       .  A
N19          N20   1.318       .  A
N19         Mn21   2.186       .  S
N20          C22   1.346       .  A
Mn21       N1581   2.180   1_545  S
Mn21        N539   2.263   1_545  S
Mn21        Cl45   2.555       .  S
C22         N276   1.353       .  A
C22         C207   1.430       .  S
C23         C248   1.532       .  S
N24          N25   1.327       .  A
N24          N30   1.316       .  A
N24        Mn294   2.248   1_554  S
N25          C33   1.358       .  A
N26          N27   1.314       .  A
N26         N290   1.313       .  A
N26         Mn44   2.168       .  S
N27          C34   1.342       .  A
N28          N29   1.322       .  A
N28         N288   1.313       .  A
N28        Mn556   2.198       .  S
N29         C296   1.354       .  A
N30          N31   1.337       .  A
N30        Mn568   2.267       .  S
N31          C33   1.367       .  A
Mn32        N527   2.227   1_545  S
Mn32        N286   2.270       .  S
Mn32        N552   2.192   1_545  S
Mn32      Cl1093   2.549       .  S
C33         C243   1.525       .  S
C34         N291   1.355       .  A
C34         C211   1.422       .  S
N35          N36   1.322       .  A
N35          N41   1.321       .  A
N35         Mn43   2.185       .  S
N36          C46   1.349       .  A
N37          N38   1.317       .  A
N37          N39   1.318       .  A
N37       Mn1616   2.166       .  S
N38          C47   1.345       .  A
N39          N40   1.319       .  A
N39        Mn567   2.220   1_545  S
N40          C47   1.351       .  A
N41        N1090   1.313       .  A
N41       Mn1092   2.205       .  S
N42        N1089   1.316   1_455  A
N42        C1094   1.345   1_455  A
Mn43        N799   2.199   1_554  S
Mn43        N279   2.272   1_554  S
Mn43        N563   2.230       .  S
Mn43       Cl831   2.554       .  S
Mn44        N554   2.246       .  S
Mn44       N1609   2.166   1_455  S
Mn44       N1089   2.211   1_455  S
Mn44      Cl1879   2.553   1_455  S
Cl45      Mn1080   2.550       .  S
Cl45       Mn829   2.551   1_545  S
Cl45      Mn1878   2.552       .  S
C46        N1090   1.342       .  A
C46         C226   1.418       .  S
C47         C222   1.422       .  S
N48          N49   1.313       .  A
N48          N54   1.322       .  A
N48        Mn339   2.199       .  S
N49          C56   1.342       .  A
N50          N52   1.320       .  A
N50          N51   1.318       .  A
N50         Mn66   2.218       .  S
N51          C57   1.348       .  A
N52          N53   1.320       .  A
N52         Mn77   2.185       .  S
N53          C57   1.347       .  A
N54          N55   1.325       .  A
N54        Mn328   2.218       .  S
N55          C56   1.355       .  A
C56         C210   1.428       .  S
C57         C206   1.424       .  S
N58          N64   1.313       .  A
N58          N59   1.321       .  A
N58        Mn350   2.200   1_554  S
N59          C67   1.352       .  A
N60          N61   1.343       .  A
N60          N62   1.318       .  A
N60        Mn328   2.288       .  S
N61          C68   1.371       .  A
N62          N63   1.327       .  A
N62         Mn88   2.247       .  S
N63          C68   1.357       .  A
N64          N65   1.321       .  A
N64         Mn66   2.199       .  S
N65          C67   1.353       .  A
Mn66        N316   2.209       .  S
Mn66        N322   2.276   1_554  S
Mn66        Cl90   2.587       .  S
C67         C194   1.440       .  S
C68         C251   1.538       .  S
N69          N70   1.325       .  A
N69          N75   1.318       .  A
N69         Mn77   2.239       .  S
N70          C78   1.356       .  A
N71          N73   1.313       .  A
N71          N72   1.321       .  A
N71         Mn89   2.198       .  S
N72          C79   1.352       .  A
N73          N74   1.322       .  A
N73        Mn339   2.207       .  S
N74          C79   1.353       .  A
N75          N76   1.344       .  A
N75        Mn351   2.292   1_554  S
N76          C78   1.371       .  A
Mn77        N310   2.193       .  S
Mn77        N335   2.198   1_554  S
Mn77        Cl90   2.532       .  S
C78         C239   1.537       .  S
C79         C198   1.440       .  S
N80          N81   1.319       .  A
N80          N86   1.321       .  A
N80         Mn88   2.186       .  S
N81          C91   1.347       .  A
N82          N83   1.323   1_556  A
N82          N84   1.322       .  A
N82        Mn351   2.201       .  S
N83          C92   1.352       .  A
N84          N85   1.312       .  A
N84        Mn350   2.199       .  S
N85          C92   1.342   1_556  A
N86          N87   1.318       .  A
N86         Mn89   2.219       .  S
N87          C91   1.349       .  A
Mn88        N320   2.206       .  S
Mn88        N346   2.196       .  S
Mn88       Cl352   2.538       .  S
Mn89        N337   2.273       .  S
Mn89        N344   2.208       .  S
Mn89       Cl352   2.583       .  S
Cl90       Mn350   2.533   1_554  S
Cl90       Mn351   2.586   1_554  S
C91         C202   1.424       .  S
C92         C214   1.420       .  S
N93          N94   1.318       .  A
N93          N99   1.318       .  A
N93        Mn122   2.214       .  S
N94         C101   1.349       .  A
N95          N97   1.316       .  A
N95        N1144   1.320       .  A
N95        Mn111   2.221       .  S
N96        N1143   1.318       .  A
N96         C102   1.349       .  A
N97        N1146   1.315       .  A
N97        Mn122   2.159       .  S
N98        N1145   1.320       .  A
N98         C102   1.347       .  A
N99         N100   1.319       .  A
N99        Mn111   2.177       .  S
N100        C101   1.347       .  A
C101        C203   1.425       .  S
C102        C223   1.426       .  S
N103        N109   1.314       .  A
N103        N104   1.317       .  A
N103       Mn133   2.182       .  S
N104        C112   1.345       .  A
N105        N106   1.328       .  A
N105        N107   1.316       .  A
N105       Mn111   2.259       .  S
N106        C113   1.360       .  A
N107        N108   1.340       .  A
N107      Mn1181   2.275       .  S
N108        C113   1.369       .  A
N109        N110   1.323       .  A
N109      Mn1159   2.197   1_455  S
N110        C112   1.353       .  A
Mn111      N1157   2.193       .  S
Mn111      Cl135   2.551       .  S
C112        C187   1.432       .  S
C113        C260   1.534       .  S
N114        N115   1.337       .  A
N114        N120   1.316       .  A
N114      Mn1170   2.258   1_455  S
N115        C123   1.365       .  A
N116        N118   1.314       .  A
N116        N117   1.322       .  A
N116      Mn1182   2.203       .  S
N117        C124   1.353       .  A
N118        N119   1.316       .  A
N118       Mn122   2.171       .  S
N119        C124   1.344       .  A
N120        N121   1.330       .  A
N120       Mn134   2.270       .  S
N121        C123   1.363       .  A
Mn122      N1162   2.231       .  S
Mn122      Cl135   2.544       .  S
C123        C235   1.533       .  S
C124        C186   1.428       .  S
N125        N131   1.319       .  A
N125       N1174   1.318   1_455  A
N125       Mn133   2.169       .  S
N126       N1173   1.317       .  A
N126        C136   1.344       .  A
N127        N128   1.318       .  A
N127        N129   1.319       .  A
N127       Mn134   2.170       .  S
N128        C137   1.346       .  A
N129        N130   1.319       .  A
N129       Mn133   2.226       .  S
N130        C137   1.350       .  A
N131       N1180   1.318   1_455  A
N131       Mn134   2.227       .  S
N132       N1179   1.318       .  A
N132        C136   1.351       .  A
Mn133      N1155   2.265   1_455  S
Mn133     Cl1183   2.556       .  S
Mn134      N1164   2.192   1_455  S
Mn134     Cl1183   2.542       .  S
Cl135     Mn1181   2.551       .  S
Cl135     Mn1182   2.555       .  S
C136        C230   1.421       .  S
C137        C199   1.424       .  S
N138        N139   1.341       .  A
N138        N144   1.318       .  A
N138       Mn167   2.286       .  S
N139        C146   1.369       .  A
N140        N142   1.313       .  A
N140        N141   1.319       .  A
N140       Mn156   2.187       .  S
N141        C147   1.349       .  A
N142        N143   1.324       .  A
N142       Mn691   2.213   1_545  S
N143        C147   1.355       .  A
N144        N145   1.327       .  A
N144       Mn680   2.241       .  S
N145        C146   1.357       .  A
C146        C256   1.533       .  S
C147        C195   1.440       .  S
N148        N154   1.322       .  A
N148        N149   1.322       .  A
N148       Mn178   2.206       .  S
N149        C157   1.352       .  A
N150        N151   1.321       .  A
N150        N152   1.320       .  A
N150       Mn680   2.190       .  S
N151        C158   1.349       .  A
N152        N153   1.314       .  A
N152       Mn702   2.195       .  S
N153        C158   1.344       .  A
N154        N155   1.316       .  A
N154       Mn156   2.209       .  S
N155        C157   1.345       .  A
Mn156       N668   2.255   1_545  S
Mn156       N674   2.190       .  S
Mn156      Cl180   2.539       .  S
C157        C183   1.427       .  S
C158        C219   1.419       .  S
N159        N160   1.314       .  A
N159        N165   1.321       .  A
N159       Mn691   2.197       .  S
N160        C168   1.343       .  A
N161        N163   1.324       .  A
N161        N162   1.316       .  A
N161       Mn179   2.215       .  S
N162        C169   1.344       .  A
N163        N164   1.323       .  A
N163       Mn167   2.214       .  S
N164        C169   1.353       .  A
N165        N166   1.323       .  A
N165       Mn703   2.201       .  S
N166        C168   1.350       .  A
Mn167       N666   2.204       .  S
Mn167       N683   2.203       .  S
Mn167      Cl704   2.559       .  S
C168        C215   1.425       .  S
C169        C190   1.431       .  S
N170        N171   1.324       .  A
N170        N176   1.313       .  A
N170       Mn702   2.215       .  S
N171        C181   1.355       .  A
N172        N173   1.328       .  A
N172        N174   1.318       .  A
N172       Mn703   2.251   1_545  S
N173        C182   1.359       .  A
N174        N175   1.338       .  A
N174       Mn178   2.268       .  S
N175        C182   1.366       .  A
N176        N177   1.319       .  A
N176       Mn179   2.183       .  S
N177        C181   1.349       .  A
Mn178       N676   2.204       .  S
Mn178       N694   2.199       .  S
Mn178      Cl180   2.569       .  S
Mn179       N689   2.202       .  S
Mn179       N696   2.283       .  S
Mn179      Cl704   2.556       .  S
Cl180      Mn691   2.567   1_545  S
Cl180      Mn703   2.535   1_545  S
C181        C191   1.440       .  S
C182        C232   1.529       .  S
C183        C184   1.202       .  T
C184        C185   1.407       .  S
C185        C186   1.202       .  T
C187        C188   1.204       .  T
C188        C189   1.410       .  S
C189        C190   1.204       .  T
C191        C192   1.208       .  T
C192        C193   1.416       .  S
C193        C194   1.208       .  T
C195        C196   1.208       .  T
C196        C197   1.416       .  S
C197        C198   1.208       .  T
C199        C200   1.198       .  T
C200        C201   1.398       .  S
C201        C202   1.197       .  T
C203        C204   1.198       .  T
C204        C205   1.398       .  S
C205        C206   1.198       .  T
C207        C208   1.203       .  T
C208        C209   1.407       .  S
C209        C210   1.202       .  T
C211        C212   1.199       .  T
C212        C213   1.400       .  S
C213        C214   1.197       .  T
C215        C216   1.199       .  T
C216        C741   1.402       .  S
C217        C218   1.199       .  T
C217        C740   1.402       .  S
C219        C220   1.196       .  T
C220        C745   1.398       .  S
C221        C222   1.198       .  T
C221        C744   1.399       .  S
C223       C1272   1.200       .  T
C224       C1271   1.195       .  T
C224        C225   1.395       .  S
C225        C226   1.195       .  T
C227       C1276   1.197       .  T
C228       C1275   1.196       .  T
C228        C229   1.396       .  S
C229        C230   1.196       .  T
C231        C232   1.371       .  D
C231        H233   1.078       .  S
C232        H234   1.083       .  S
C235        C236   1.374       .  D
C235        H237   1.080       .  S
C236        H238   1.084       .  S
C239        C240   1.379       .  D
C239        H241   1.080       .  S
C240        H242   1.087       .  S
C243        C244   1.367       .  D
C243        H245   1.088       .  S
C244        H246   1.090       .  S
C247        C248   1.374       .  D
C247        H249   1.086       .  S
C248        H250   1.084       .  S
C251        C252   1.377       .  D
C251        H253   1.084       .  S
C252        H254   1.087       .  S
C255        C256   1.376       .  D
C255        H257   1.085       .  S
C256        H258   1.082       .  S
C259        C260   1.374       .  D
C259        H261   1.088       .  S
C260        H262   1.085       .  S
C263        C509   1.586       .  S
C263        C514   1.587       .  S
C263        C517   1.580       .  S
C263        C521   1.588       .  S
C264        C493   1.570       .  S
C264        C498   1.578       .  S
C264        C502   1.584       .  S
C264        C506   1.576       .  S
N265        N266   1.319       .  A
N265        N271   1.322       .  A
N265       Mn818   2.233       .  S
N266        C273   1.350       .  A
N267       N1317   1.320       .  A
N267        N268   1.312       .  A
N267       Mn283   2.197       .  S
N268       C1322   1.341       .  A
N269       N1315   1.319       .  A
N269        N270   1.323       .  A
N269       Mn294   2.193       .  S
N270        C274   1.350       .  A
N271       N1320   1.319       .  A
N271      Mn1855   2.176   1_455  S
N272       N1319   1.317       .  A
N272       C1321   1.346       .  A
C273       N1320   1.346       .  A
C273        C480   1.426       .  S
C274       N1316   1.342       .  A
C274        C489   1.421       .  S
N275        N281   1.313       .  A
N275       Mn567   2.199   1_546  S
N277        N278   1.339       .  A
N277        N279   1.316       .  A
N277       Mn807   2.264       .  S
N278        C285   1.367       .  A
N279        N280   1.330       .  A
N280        C285   1.363       .  A
N281        N282   1.315       .  A
N281       Mn283   2.173       .  S
N282        C284   1.342       .  A
Mn283      N1843   2.175   1_545  S
Mn283       N801   2.242   1_545  S
Mn283      Cl307   2.551   1_556  S
C284        C469   1.427       .  S
C285        C510   1.537       .  S
N286        N287   1.329       .  A
N286        N292   1.316       .  A
N287        C295   1.362       .  A
N288        N289   1.316       .  A
N288       Mn306   2.180       .  S
N289        C296   1.345       .  A
N290        N291   1.322       .  A
N290       Mn818   2.197   1_554  S
N292        N293   1.335       .  A
N292       Mn830   2.247       .  S
N293        C295   1.363       .  A
Mn294       N789   2.215   1_545  S
Mn294       N814   2.205   1_546  S
Mn294     Cl1355   2.561       .  S
C295        C505   1.526       .  S
C296        C473   1.428       .  S
N297        N298   1.321       .  A
N297        N303   1.321       .  A
N297       Mn305   2.183       .  S
N298        C308   1.348       .  A
N299        N300   1.316       .  A
N299        N301   1.319       .  A
N299      Mn1878   2.164       .  S
N300        C309   1.344       .  A
N301        N302   1.320       .  A
N301       Mn829   2.223   1_545  S
N302        C309   1.351       .  A
N303       N1352   1.313       .  A
N303      Mn1354   2.201       .  S
N304       N1351   1.315   1_455  A
N304       C1356   1.346   1_455  A
Mn305       N537   2.197       .  S
Mn305       N825   2.225       .  S
Mn305      Cl569   2.549       .  S
Mn306       N816   2.243       .  S
Mn306      N1871   2.158   1_455  S
Mn306      N1351   2.210   1_455  S
Mn306     Cl1617   2.538       .  S
Cl307     Mn1342   2.548   1_554  S
Cl307      Mn567   2.546   1_545  S
Cl307     Mn1616   2.553       .  S
C308       N1352   1.341       .  A
C308        C488   1.416       .  S
C309        C484   1.421       .  S
N310        N311   1.313       .  A
N310        N316   1.321       .  A
N311        C318   1.341   1_554  A
N312        N314   1.321       .  A
N312        N313   1.318       .  A
N312       Mn328   2.221       .  S
N313        C319   1.348       .  A
N314        N315   1.320       .  A
N314       Mn339   2.182       .  S
N315        C319   1.347       .  A
N316        N317   1.325   1_554  A
N317        C318   1.354       .  A
C318        C472   1.425       .  S
C319        C468   1.424       .  S
N320        N326   1.313       .  A
N320        N321   1.322       .  A
N321        C329   1.353       .  A
N322        N323   1.340       .  A
N322        N324   1.317       .  A
N323        C330   1.368       .  A
N324        N325   1.328       .  A
N324       Mn350   2.257       .  S
N325        C330   1.360       .  A
N326        N327   1.321       .  A
N326       Mn328   2.200       .  S
N327        C329   1.352       .  A
Mn328      Cl352   2.584       .  S
C329        C456   1.442       .  S
C330        C513   1.534       .  S
N331        N332   1.328       .  A
N331        N337   1.317       .  A
N331       Mn339   2.251       .  S
N332        C340   1.359       .  A
N333        N335   1.314       .  A
N333        N334   1.319       .  A
N333       Mn351   2.188       .  S
N334        C341   1.350       .  A
N335        N336   1.320       .  A
N336        C341   1.351       .  A
N337        N338   1.339       .  A
N338        C340   1.367       .  A
Mn339      Cl352   2.540       .  S
C340        C501   1.532       .  S
C341        C460   1.431       .  S
N342        N343   1.318       .  A
N342        N348   1.321       .  A
N342       Mn350   2.177       .  S
N343        C353   1.346       .  A
N344        N345   1.325       .  A
N344        N346   1.321       .  A
N345        C354   1.353       .  A
N346        N347   1.313       .  A
N347        C354   1.342       .  A
N348        N349   1.320       .  A
N348       Mn351   2.231       .  S
N349        C353   1.351       .  A
C353        C464   1.426       .  S
C354        C476   1.425       .  S
N355        N356   1.318       .  A
N355        N361   1.320       .  A
N355       Mn384   2.223       .  S
N356        C363   1.349       .  A
N357        N359   1.319       .  A
N357       N1406   1.321       .  A
N357       Mn373   2.238       .  S
N358       N1405   1.318   1_455  A
N358        C364   1.351       .  A
N359       N1408   1.314       .  A
N359       Mn384   2.150       .  S
N360       N1407   1.316   1_455  A
N360        C364   1.343       .  A
N361        N362   1.320       .  A
N361       Mn373   2.179       .  S
N362        C363   1.347       .  A
C363        C465   1.425       .  S
C364        C485   1.417       .  S
N365        N371   1.313       .  A
N365        N366   1.314       .  A
N365       Mn395   2.169       .  S
N366        C374   1.343       .  A
N367        N368   1.342       .  A
N367        N369   1.316       .  A
N367       Mn373   2.295       .  S
N368        C375   1.372       .  A
N369        N370   1.328       .  A
N369      Mn1443   2.252       .  S
N370        C375   1.360       .  A
N371        N372   1.324       .  A
N371      Mn1421   2.206   1_455  S
N372        C374   1.356       .  A
Mn373      N1419   2.199       .  S
Mn373      Cl397   2.570       .  S
C374        C449   1.431       .  S
C375        C522   1.541       .  S
N376        N377   1.326       .  A
N376        N382   1.315       .  A
N376      Mn1432   2.231   1_455  S
N377        C385   1.357       .  A
N378        N380   1.314       .  A
N378        N379   1.323       .  A
N378      Mn1444   2.207       .  S
N379        C386   1.353       .  A
N380        N381   1.316       .  A
N380       Mn384   2.165       .  S
N381        C386   1.343       .  A
N382        N383   1.340       .  A
N382       Mn396   2.292       .  S
N383        C385   1.370       .  A
Mn384      N1424   2.253       .  S
Mn384      Cl397   2.534       .  S
C385        C497   1.530       .  S
C386        C448   1.429       .  S
N387       N1436   1.317   1_455  A
N387        N393   1.321       .  A
N387       Mn395   2.169       .  S
N388       N1435   1.314       .  A
N388        C398   1.342       .  A
N389        N390   1.318       .  A
N389        N391   1.321       .  A
N389       Mn396   2.176       .  S
N390        C399   1.346       .  A
N391        N392   1.319       .  A
N391       Mn395   2.234       .  S
N392        C399   1.350       .  A
N393       N1442   1.319       .  A
N393       Mn396   2.234       .  S
N394       N1441   1.320       .  A
N394        C398   1.353       .  A
Mn395      N1417   2.278   1_455  S
Mn395     Cl1445   2.553   1_455  S
Mn396      N1426   2.192   1_455  S
Mn396     Cl1445   2.553   1_455  S
Cl397     Mn1443   2.531       .  S
Cl397     Mn1444   2.569       .  S
C398        C492   1.417       .  S
C399        C461   1.425       .  S
N400        N401   1.342       .  A
N400        N406   1.318       .  A
N400       Mn429   2.298       .  S
N401        C408   1.372       .  A
N402        N404   1.312       .  A
N402        N403   1.319       .  A
N402       Mn418   2.184       .  S
N403        C409   1.350       .  A
N404        N405   1.321       .  A
N404       Mn953   2.196   1_545  S
N405        C409   1.351       .  A
N406        N407   1.323       .  A
N406       Mn942   2.222       .  S
N407        C408   1.352       .  A
C408        C518   1.527       .  S
C409        C457   1.432       .  S
N410        N416   1.321       .  A
N410        N411   1.321       .  A
N410       Mn440   2.200       .  S
N411        C419   1.351       .  A
N412        N413   1.320       .  A
N412        N414   1.318       .  A
N412       Mn942   2.181       .  S
N413        C420   1.348       .  A
N414        N415   1.314       .  A
N414       Mn964   2.189       .  S
N415        C420   1.345       .  A
N416        N417   1.317       .  A
N416       Mn418   2.211       .  S
N417        C419   1.346       .  A
Mn418       N930   2.261   1_545  S
Mn418       N936   2.194       .  S
Mn418      Cl442   2.542       .  S
C419        C445   1.427       .  S
C420        C481   1.418       .  S
N421        N422   1.312       .  A
N421        N427   1.319       .  A
N421       Mn953   2.189       .  S
N422        C430   1.342       .  A
N423        N425   1.324       .  A
N423        N424   1.315       .  A
N423       Mn441   2.204       .  S
N424        C431   1.342       .  A
N425        N426   1.324       .  A
N425       Mn429   2.219       .  S
N426        C431   1.354       .  A
N427        N428   1.321       .  A
N427       Mn965   2.185       .  S
N428        C430   1.349       .  A
Mn429       N928   2.202       .  S
Mn429       N945   2.219       .  S
Mn429      Cl966   2.570       .  S
C430        C477   1.416       .  S
C431        C452   1.431       .  S
N432        N433   1.324       .  A
N432        N438   1.313       .  A
N432       Mn964   2.213       .  S
N433        C443   1.355       .  A
N434        N435   1.327       .  A
N434        N436   1.317       .  A
N434       Mn965   2.245   1_545  S
N435        C444   1.358       .  A
N436        N437   1.335       .  A
N436       Mn440   2.254       .  S
N437        C444   1.363       .  A
N438        N439   1.320       .  A
N438       Mn441   2.189       .  S
N439        C443   1.350       .  A
Mn440       N938   2.202       .  S
Mn440       N956   2.198       .  S
Mn440      Cl442   2.562       .  S
Mn441       N951   2.200       .  S
Mn441       N958   2.265       .  S
Mn441      Cl966   2.543       .  S
Cl442      Mn953   2.558   1_545  S
Cl442      Mn965   2.539   1_545  S
C443        C453   1.441       .  S
C444        C494   1.519       .  S
C445        C446   1.201       .  T
C446        C447   1.405       .  S
C447        C448   1.202       .  T
C449        C450   1.204       .  T
C450        C451   1.410       .  S
C451        C452   1.204       .  T
C453        C454   1.209       .  T
C454        C455   1.418       .  S
C455        C456   1.209       .  T
C457        C458   1.203       .  T
C458        C459   1.408       .  S
C459        C460   1.203       .  T
C461        C462   1.198       .  T
C462        C463   1.400       .  S
C463        C464   1.199       .  T
C465        C466   1.198       .  T
C466        C467   1.399       .  S
C467        C468   1.198       .  T
C469        C470   1.201       .  T
C470        C471   1.404       .  S
C471        C472   1.200       .  T
C473        C474   1.201       .  T
C474        C475   1.405       .  S
C475        C476   1.200       .  T
C477        C478   1.195       .  T
C478       C1003   1.395       .  S
C479        C480   1.200       .  T
C479       C1002   1.403       .  S
C481        C482   1.195       .  T
C482       C1007   1.396       .  S
C483        C484   1.198       .  T
C483       C1006   1.399       .  S
C485       C1534   1.194       .  T
C486       C1533   1.194       .  T
C486        C487   1.393       .  S
C487        C488   1.193       .  T
C489       C1538   1.197       .  T
C490       C1537   1.194       .  T
C490        C491   1.394       .  S
C491        C492   1.195       .  T
C493        C494   1.367       .  D
C493        H495   1.086       .  S
C494        H496   1.086       .  S
C497        C498   1.368       .  D
C497        H499   1.085       .  S
C498        H500   1.086       .  S
C501        C502   1.373       .  D
C501        H503   1.085       .  S
C502        H504   1.086       .  S
C505        C506   1.370       .  D
C505        H507   1.085       .  S
C506        H508   1.086       .  S
C509        C510   1.376       .  D
C509        H511   1.087       .  S
C510        H512   1.086       .  S
C513        C514   1.375       .  D
C513        H515   1.086       .  S
C514        H516   1.086       .  S
C517        C518   1.366       .  D
C517        H519   1.085       .  S
C518        H520   1.086       .  S
C521        C522   1.374       .  D
C521        H523   1.087       .  S
C522        H524   1.087       .  S
C525        C771   1.583       .  S
C525        C776   1.606       .  S
C525        C779   1.585       .  S
C525        C783   1.586       .  S
C526        C755   1.581       .  S
C526        C760   1.588       .  S
C526        C764   1.594       .  S
C526        C768   1.578       .  S
N527        N528   1.320       .  A
N527        N533   1.320       .  A
N528        C535   1.352       .  A
N529       N1579   1.321       .  A
N529        N530   1.316       .  A
N529       Mn545   2.213       .  S
N530       C1584   1.345       .  A
N531       N1577   1.321       .  A
N531        N532   1.323       .  A
N531       Mn556   2.192       .  S
N532        C536   1.350       .  A
N533       N1582   1.317       .  A
N533      Mn1069   2.177   1_465  S
N534       N1581   1.318       .  A
N534       C1583   1.346       .  A
C535       N1582   1.346       .  A
C535        C742   1.424       .  S
C536       N1578   1.343   1_455  A
C536        C751   1.422       .  S
N537        N543   1.313       .  A
N537        N800   1.322       .  A
N538        N799   1.322       .  A
N538        C808   1.353       .  A
N539        N540   1.338       .  A
N539        N541   1.316       .  A
N540        C547   1.367       .  A
N541        N542   1.328       .  A
N541       Mn829   2.258       .  S
N542        C547   1.360       .  A
N543        N544   1.313       .  A
N543       Mn545   2.163       .  S
N544        C546   1.342       .  A
Mn545      N1057   2.160       .  S
Mn545      Cl569   2.551       .  S
C546        N800   1.354       .  A
C546        C731   1.421       .  S
C547        C772   1.530       .  S
N548        N549   1.332       .  A
N548        N554   1.317       .  A
N548       Mn818   2.275   1_554  S
N549        C557   1.364       .  A
N550        N814   1.312       .  A
N550        N551   1.316       .  A
N550       Mn568   2.172   1_565  S
N551        C558   1.343       .  A
N552        N812   1.312       .  A
N552        N553   1.321       .  A
N553        C820   1.353       .  A
N554        N555   1.334       .  A
N555        C557   1.362       .  A
Mn556       N810   2.275       .  S
Mn556     Cl1617   2.560       .  S
C557        C767   1.529       .  S
C558        N815   1.356       .  A
C558        C735   1.430       .  S
N559        N560   1.321       .  A
N559        N565   1.320       .  A
N559       Mn567   2.185       .  S
N560        C570   1.348       .  A
N561        N562   1.315       .  A
N561        N563   1.320       .  A
N561      Mn1092   2.159       .  S
N562        C571   1.342       .  A
N563        N564   1.320       .  A
N564        C571   1.352       .  A
N565       N1614   1.314       .  A
N565      Mn1616   2.198   1_565  S
N566       N1613   1.315   1_455  A
N566       C1618   1.345   1_455  A
Mn567       N803   2.254   1_554  S
Mn568      N1085   2.171   1_455  S
Mn568      N1613   2.218   1_445  S
Mn568     Cl1355   2.540   1_554  S
Cl569     Mn1604   2.550       .  S
Cl569     Mn1354   2.552       .  S
C570       N1614   1.342       .  A
C570        C750   1.417       .  S
C571        C746   1.420       .  S
N572        N573   1.312       .  A
N572        N578   1.322       .  A
N572       Mn863   2.196       .  S
N573        C580   1.341       .  A
N574        N576   1.322       .  A
N574        N575   1.319       .  A
N574       Mn590   2.227       .  S
N575        C581   1.349       .  A
N576        N577   1.319       .  A
N576       Mn601   2.185       .  S
N577        C581   1.347       .  A
N578        N579   1.323       .  A
N578       Mn852   2.200       .  S
N579        C580   1.352       .  A
C580        C734   1.419       .  S
C581        C730   1.423       .  S
N582        N588   1.312       .  A
N582        N583   1.322       .  A
N582       Mn874   2.198   1_554  S
N583        C591   1.353       .  A
N584        N585   1.343       .  A
N584        N586   1.319       .  A
N584       Mn852   2.288       .  S
N585        C592   1.370       .  A
N586        N587   1.331       .  A
N586       Mn612   2.272       .  S
N587        C592   1.363       .  A
N588        N589   1.319       .  A
N588       Mn590   2.190       .  S
N589        C591   1.350       .  A
Mn590       N840   2.208       .  S
Mn590       N846   2.289   1_554  S
Mn590      Cl614   2.581       .  S
C591        C718   1.435       .  S
C592        C775   1.551       .  S
N593        N594   1.332       .  A
N593        N599   1.318       .  A
N593       Mn601   2.268       .  S
N594        C602   1.363       .  A
N595        N597   1.312       .  A
N595        N596   1.319       .  A
N595       Mn613   2.188       .  S
N596        C603   1.350       .  A
N597        N598   1.321       .  A
N597       Mn863   2.198       .  S
N598        C603   1.352       .  A
N599        N600   1.341       .  A
N599       Mn875   2.280   1_554  S
N600        C602   1.368       .  A
Mn601       N834   2.207       .  S
Mn601       N859   2.192       .  S
Mn601      Cl614   2.546       .  S
C602        C763   1.545       .  S
C603        C722   1.433       .  S
N604        N605   1.319       .  A
N604        N610   1.322       .  A
N604       Mn612   2.188       .  S
N605        C615   1.347       .  A
N606        N607   1.325       .  A
N606        N608   1.322   1_554  A
N606       Mn875   2.209   1_554  S
N607        C616   1.354       .  A
N608        N609   1.312   1_556  A
N608       Mn874   2.199       .  S
N609        C616   1.341       .  A
N610        N611   1.320       .  A
N610       Mn613   2.229       .  S
N611        C615   1.350       .  A
Mn612       N844   2.197       .  S
Mn612       N870   2.211       .  S
Mn612      Cl876   2.541       .  S
Mn613       N861   2.290       .  S
Mn613       N868   2.192       .  S
Mn613      Cl876   2.582       .  S
Cl614      Mn874   2.542   1_554  S
Cl614      Mn875   2.580   1_554  S
C615        C726   1.427       .  S
C616        C738   1.425       .  S
N617        N618   1.321       .  A
N617        N623   1.319       .  A
N617       Mn646   2.224       .  S
N618        C625   1.351       .  A
N619        N621   1.317       .  A
N619       N1668   1.320       .  A
N619       Mn635   2.227       .  S
N620       N1667   1.319   1_455  A
N620        C626   1.351       .  A
N621       N1670   1.315       .  A
N621       Mn646   2.149       .  S
N622       N1669   1.316   1_455  A
N622        C626   1.343       .  A
N623        N624   1.317       .  A
N623       Mn635   2.173       .  S
N624        C625   1.344       .  A
C625        C727   1.425       .  S
C626        C747   1.420       .  S
N627        N633   1.314       .  A
N627        N628   1.315       .  A
N627       Mn657   2.172       .  S
N628        C636   1.342       .  A
N629        N630   1.331       .  A
N629        N631   1.316       .  A
N629       Mn635   2.269       .  S
N630        C637   1.363       .  A
N631        N632   1.339       .  A
N631      Mn1705   2.278       .  S
N632        C637   1.368       .  A
N633        N634   1.324       .  A
N633      Mn1683   2.205   1_455  S
N634        C636   1.355       .  A
Mn635      N1681   2.191       .  S
Mn635      Cl659   2.557       .  S
C636        C711   1.430       .  S
C637        C784   1.539       .  S
N638        N639   1.328       .  A
N638        N644   1.317       .  A
N638      Mn1694   2.252   1_455  S
N639        C647   1.360       .  A
N640        N642   1.313       .  A
N640        N641   1.322       .  A
N640      Mn1706   2.203       .  S
N641        C648   1.353       .  A
N642        N643   1.315       .  A
N642       Mn646   2.166       .  S
N643        C648   1.344       .  A
N644        N645   1.342       .  A
N644       Mn658   2.296       .  S
N645        C647   1.371       .  A
Mn646      N1686   2.239       .  S
Mn646      Cl659   2.543       .  S
C647        C759   1.540       .  S
C648        C710   1.426       .  S
N649       N1698   1.317       .  A
N649        N655   1.321       .  A
N649       Mn657   2.167   1_655  S
N650       N1697   1.317       .  A
N650        C660   1.344       .  A
N651        N652   1.319       .  A
N651        N653   1.321       .  A
N651       Mn658   2.180       .  S
N652        C661   1.347       .  A
N653        N654   1.319       .  A
N653       Mn657   2.234       .  S
N654        C661   1.350       .  A
N655       N1704   1.319       .  A
N655       Mn658   2.236   1_655  S
N656       N1703   1.319       .  A
N656        C660   1.351       .  A
Mn657      N1679   2.279   1_455  S
Mn657     Cl1707   2.553   1_455  S
Mn658      N1688   2.199   1_455  S
Mn658     Cl1707   2.556   1_455  S
Cl659     Mn1705   2.545       .  S
Cl659     Mn1706   2.559       .  S
C660        C754   1.421       .  S
C661        C723   1.427       .  S
N662        N663   1.337       .  A
N662        N668   1.317       .  A
N662       Mn691   2.257       .  S
N663        C670   1.364       .  A
N664        N666   1.313       .  A
N664        N665   1.319       .  A
N664       Mn680   2.182       .  S
N665        C671   1.349       .  A
N666        N667   1.322       .  A
N667        C671   1.353       .  A
N668        N669   1.328       .  A
N669        C670   1.361       .  A
C670        C780   1.524       .  S
C671        C719   1.434       .  S
N672        N678   1.318       .  A
N672        N673   1.321       .  A
N672       Mn702   2.199       .  S
N673        C681   1.352       .  A
N674        N675   1.321       .  A
N674        N676   1.320       .  A
N675        C682   1.349       .  A
N676        N677   1.316       .  A
N677        C682   1.345       .  A
N678        N679   1.315       .  A
N678       Mn680   2.196       .  S
N679        C681   1.345       .  A
Mn680      Cl704   2.547       .  S
C681        C707   1.425       .  S
C682        C743   1.423       .  S
N683        N684   1.314       .  A
N683        N689   1.323       .  A
N684        C692   1.342       .  A
N685        N687   1.320       .  A
N685        N686   1.314       .  A
N685       Mn703   2.198       .  S
N686        C693   1.343       .  A
N687        N688   1.323       .  A
N687       Mn691   2.208       .  S
N688        C693   1.354       .  A
N689        N690   1.323       .  A
N690        C692   1.351       .  A
C692        C739   1.424       .  S
C693        C714   1.428       .  S
N694        N695   1.322   1_545  A
N694        N700   1.313   1_545  A
N695        C705   1.353       .  A
N696        N697   1.338       .  A
N696        N698   1.318       .  A
N697        C706   1.369       .  A
N698        N699   1.328       .  A
N698       Mn702   2.239       .  S
N699        C706   1.357       .  A
N700        N701   1.319       .  A
N700       Mn703   2.189       .  S
N701        C705   1.349       .  A
Mn702      Cl704   2.552       .  S
C705        C715   1.435       .  S
C706        C756   1.529       .  S
C707        C708   1.200       .  T
C708        C709   1.405       .  S
C709        C710   1.201       .  T
C711        C712   1.203       .  T
C712        C713   1.408       .  S
C713        C714   1.202       .  T
C715        C716   1.205       .  T
C716        C717   1.411       .  S
C717        C718   1.205       .  T
C719        C720   1.204       .  T
C720        C721   1.410       .  S
C721        C722   1.204       .  T
C723        C724   1.199       .  T
C724        C725   1.402       .  S
C725        C726   1.200       .  T
C727        C728   1.198       .  T
C728        C729   1.398       .  S
C729        C730   1.197       .  T
C731        C732   1.198       .  T
C732        C733   1.399       .  S
C733        C734   1.196       .  T
C735        C736   1.202       .  T
C736        C737   1.406       .  S
C737        C738   1.201       .  T
C739        C740   1.199       .  T
C741        C742   1.199       .  T
C743        C744   1.198       .  T
C745        C746   1.197       .  T
C747       C1796   1.196       .  T
C748       C1795   1.193       .  T
C748        C749   1.392       .  S
C749        C750   1.194       .  T
C751       C1800   1.197       .  T
C752       C1799   1.196       .  T
C752        C753   1.397       .  S
C753        C754   1.197       .  T
C755        C756   1.368       .  D
C755        H757   1.087       .  S
C756        H758   1.085       .  S
C759        C760   1.375       .  D
C759        H761   1.087       .  S
C760        H762   1.088       .  S
C763        C764   1.378       .  D
C763        H765   1.090       .  S
C764        H766   1.093       .  S
C767        C768   1.372       .  D
C767        H769   1.083       .  S
C768        H770   1.085       .  S
C771        C772   1.370       .  D
C771        H773   1.086       .  S
C772        H774   1.084       .  S
C775        C776   1.387       .  D
C775        H777   1.072       .  S
C776        H778   1.079       .  S
C779        C780   1.376       .  D
C779        H781   1.085       .  S
C780        H782   1.083       .  S
C783        C784   1.378       .  D
C783        H785   1.084       .  S
C784        H786   1.082       .  S
C787       C1033   1.572       .  S
C787       C1038   1.595       .  S
C787       C1041   1.588       .  S
C787       C1045   1.578       .  S
C788       C1017   1.575       .  S
C788       C1022   1.589       .  S
C788       C1026   1.590       .  S
C788       C1030   1.576       .  S
N789        N790   1.321       .  A
N789        N795   1.317       .  A
N790        C797   1.353       .  A
N791       N1841   1.321       .  A
N791        N792   1.315       .  A
N791       Mn807   2.207       .  S
N792       C1846   1.343       .  A
N793       N1839   1.321   1_455  A
N793        N794   1.321       .  A
N793       Mn818   2.185       .  S
N794        C798   1.348       .  A
N795       N1844   1.313       .  A
N795      Mn1331   2.162   1_465  S
N796       N1843   1.318       .  A
N796       C1845   1.345       .  A
C797       N1844   1.343       .  A
C797       C1004   1.415       .  S
C798       N1840   1.344   1_455  A
C798       C1013   1.422   1_455  S
N799        N805   1.314       .  A
N801        N802   1.334       .  A
N801        N803   1.316       .  A
N802        C809   1.363       .  A
N803        N804   1.327       .  A
N804        C809   1.359       .  A
N805        N806   1.318       .  A
N805       Mn807   2.189       .  S
N806        C808   1.346       .  A
Mn807      N1319   2.175       .  S
Mn807      Cl831   2.554   1_556  S
C808        C993   1.433       .  S
C809       C1034   1.519       .  S
N810        N811   1.331       .  A
N810        N816   1.315       .  A
N811        C819   1.365       .  A
N812        N813   1.316       .  A
N812       Mn830   2.178   1_565  S
N813        C820   1.343       .  A
N814        N815   1.323       .  A
N816        N817   1.335       .  A
N817        C819   1.362       .  A
Mn818     Cl1879   2.549   1_456  S
C819       C1029   1.528       .  S
C820        C997   1.426       .  S
N821        N822   1.321       .  A
N821        N827   1.320       .  A
N821       Mn829   2.180       .  S
N822        C832   1.347       .  A
N823        N824   1.315       .  A
N823        N825   1.319       .  A
N823      Mn1354   2.161       .  S
N824        C833   1.343       .  A
N825        N826   1.319       .  A
N826        C833   1.351       .  A
N827       N1876   1.315       .  A
N827      Mn1878   2.204   1_565  S
N828       N1875   1.313   1_455  A
N828       C1880   1.342   1_455  A
Mn830      N1347   2.165   1_455  S
Mn830      N1875   2.203   1_445  S
Mn830     Cl1093   2.552       .  S
Cl831     Mn1866   2.551   1_554  S
Cl831     Mn1092   2.552       .  S
C832       N1876   1.343       .  A
C832       C1012   1.419       .  S
C833       C1008   1.419       .  S
N834        N835   1.314       .  A
N834        N840   1.321       .  A
N835        C842   1.343       .  A
N836        N838   1.321       .  A
N836        N837   1.319       .  A
N836       Mn852   2.225       .  S
N837        C843   1.350       .  A
N838        N839   1.318       .  A
N838       Mn863   2.180       .  S
N839        C843   1.346       .  A
N840        N841   1.325       .  A
N841        C842   1.354       .  A
C842        C996   1.430   1_554  S
C843        C992   1.424       .  S
N844        N850   1.313       .  A
N844        N845   1.320       .  A
N845        C853   1.352       .  A
N846        N847   1.342       .  A
N846        N848   1.318       .  A
N847        C854   1.370       .  A
N848        N849   1.328       .  A
N848       Mn874   2.254       .  S
N849        C854   1.359       .  A
N850        N851   1.319       .  A
N850       Mn852   2.187       .  S
N851        C853   1.350       .  A
Mn852      Cl876   2.583       .  S
C853        C980   1.432       .  S
C854       C1037   1.541       .  S
N855        N856   1.329       .  A
N855        N861   1.318       .  A
N855       Mn863   2.253       .  S
N856        C864   1.359       .  A
N857        N859   1.314   1_556  A
N857        N858   1.319       .  A
N857       Mn875   2.199       .  S
N858        C865   1.351       .  A
N859        N860   1.320   1_554  A
N860        C865   1.351       .  A
N861        N862   1.342       .  A
N862        C864   1.370       .  A
Mn863      Cl876   2.542       .  S
C864       C1025   1.540       .  S
C865        C984   1.433       .  S
N866        N867   1.317       .  A
N866        N872   1.320       .  A
N866       Mn874   2.176       .  S
N867        C877   1.346       .  A
N868        N869   1.323       .  A
N868        N870   1.321       .  A
N869        C878   1.350       .  A
N870        N871   1.314       .  A
N871        C878   1.344       .  A
N872        N873   1.320       .  A
N872       Mn875   2.226       .  S
N873        C877   1.351       .  A
C877        C988   1.425       .  S
C878       C1000   1.423       .  S
N879        N880   1.320       .  A
N879        N885   1.318       .  A
N879       Mn908   2.221       .  S
N880        C887   1.351       .  A
N881        N883   1.316       .  A
N881       N1930   1.320       .  A
N881       Mn897   2.223       .  S
N882       N1929   1.320   1_455  A
N882        C888   1.354       .  A
N883       N1932   1.316       .  A
N883       Mn908   2.155       .  S
N884       N1931   1.314       .  A
N884        C888   1.342       .  A
N885        N886   1.318       .  A
N885       Mn897   2.173       .  S
N886        C887   1.346       .  A
C887        C989   1.425       .  S
C888       C1009   1.419       .  S
N889        N895   1.314       .  A
N889        N890   1.315       .  A
N889       Mn919   2.167       .  S
N890        C898   1.342       .  A
N891        N892   1.328       .  A
N891        N893   1.316       .  A
N891       Mn897   2.253       .  S
N892        C899   1.359       .  A
N893        N894   1.338       .  A
N893      Mn1967   2.271       .  S
N894        C899   1.368       .  A
N895        N896   1.324       .  A
N895      Mn1945   2.210   1_455  S
N896        C898   1.355       .  A
Mn897      N1943   2.191       .  S
Mn897      Cl921   2.553       .  S
C898        C973   1.431       .  S
C899       C1046   1.531       .  S
N900        N901   1.325       .  A
N900        N906   1.315       .  A
N900      Mn1956   2.225   1_455  S
N901        C909   1.355       .  A
N902        N904   1.313       .  A
N902        N903   1.322       .  A
N902      Mn1968   2.202       .  S
N903        C910   1.353       .  A
N904        N905   1.314       .  A
N904       Mn908   2.162       .  S
N905        C910   1.343       .  A
N906        N907   1.345       .  A
N906       Mn920   2.312       .  S
N907        C909   1.376       .  A
Mn908      N1948   2.230       .  S
Mn908      Cl921   2.545       .  S
C909       C1021   1.540       .  S
C910        C972   1.425       .  S
N911       N1960   1.318       .  A
N911        N917   1.320       .  A
N911       Mn919   2.167   1_655  S
N912       N1959   1.319       .  A
N912        C922   1.346       .  A
N913        N914   1.318       .  A
N913        N915   1.322       .  A
N913       Mn920   2.179       .  S
N914        C923   1.347       .  A
N915        N916   1.319       .  A
N915       Mn919   2.230       .  S
N916        C923   1.349       .  A
N917       N1966   1.319       .  A
N917       Mn920   2.234   1_655  S
N918       N1965   1.318       .  A
N918        C922   1.350       .  A
Mn919      N1941   2.281   1_455  S
Mn919     Cl1969   2.556   1_455  S
Mn920      N1950   2.189   1_455  S
Mn920     Cl1969   2.560   1_455  S
Cl921     Mn1967   2.553       .  S
Cl921     Mn1968   2.557       .  S
C922       C1016   1.425       .  S
C923        C985   1.424       .  S
N924        N925   1.337       .  A
N924        N930   1.318       .  A
N924       Mn953   2.254       .  S
N925        C932   1.363       .  A
N926        N928   1.312       .  A
N926        N927   1.318       .  A
N926       Mn942   2.180       .  S
N927        C933   1.348       .  A
N928        N929   1.322       .  A
N929        C933   1.353       .  A
N930        N931   1.329       .  A
N931        C932   1.361       .  A
C932       C1042   1.527       .  S
C933        C981   1.433       .  S
N934        N940   1.318       .  A
N934        N935   1.321       .  A
N934       Mn964   2.203       .  S
N935        C943   1.353       .  A
N936        N937   1.321       .  A
N936        N938   1.321       .  A
N937        C944   1.349       .  A
N938        N939   1.314       .  A
N939        C944   1.345       .  A
N940        N941   1.314       .  A
N940       Mn942   2.189       .  S
N941        C943   1.344       .  A
Mn942      Cl966   2.534       .  S
C943        C969   1.423       .  S
C944       C1005   1.421       .  S
N945        N946   1.316       .  A
N945        N951   1.324       .  A
N946        C954   1.346       .  A
N947        N949   1.321       .  A
N947        N948   1.315       .  A
N947       Mn965   2.203       .  S
N948        C955   1.344       .  A
N949        N950   1.322       .  A
N949       Mn953   2.206       .  S
N950        C955   1.353       .  A
N951        N952   1.321       .  A
N952        C954   1.349       .  A
C954       C1001   1.426       .  S
C955        C976   1.428       .  S
N956        N957   1.322   1_545  A
N956        N962   1.313   1_545  A
N957        C967   1.353       .  A
N958        N959   1.335       .  A
N958        N960   1.316       .  A
N959        C968   1.365       .  A
N960        N961   1.328       .  A
N960       Mn964   2.238       .  S
N961        C968   1.358       .  A
N962        N963   1.318       .  A
N962       Mn965   2.183       .  S
N963        C967   1.349       .  A
Mn964      Cl966   2.561       .  S
C967        C977   1.432       .  S
C968       C1018   1.522       .  S
C969        C970   1.200       .  T
C970        C971   1.404       .  S
C971        C972   1.200       .  T
C973        C974   1.204       .  T
C974        C975   1.408       .  S
C975        C976   1.202       .  T
C977        C978   1.203       .  T
C978        C979   1.408       .  S
C979        C980   1.203       .  T
C981        C982   1.204       .  T
C982        C983   1.409       .  S
C983        C984   1.204       .  T
C985        C986   1.198       .  T
C986        C987   1.399       .  S
C987        C988   1.198       .  T
C989        C990   1.198       .  T
C990        C991   1.399       .  S
C991        C992   1.198       .  T
C993        C994   1.204       .  T
C994        C995   1.409       .  S
C995        C996   1.203       .  T
C997        C998   1.200       .  T
C998        C999   1.402       .  S
C999       C1000   1.198       .  T
C1001      C1002   1.200       .  T
C1003      C1004   1.194       .  T
C1005      C1006   1.197       .  T
C1007      C1008   1.196       .  T
C1009      C2058   1.195       .  T
C1010      C2057   1.196       .  T
C1010      C1011   1.394       .  S
C1011      C1012   1.195       .  T
C1013      C2062   1.197       .  T
C1014      C2061   1.199       .  T
C1014      C1015   1.401       .  S
C1015      C1016   1.199       .  T
C1017      C1018   1.366       .  D
C1017      H1019   1.087       .  S
C1018      H1020   1.085       .  S
C1021      C1022   1.371       .  D
C1021      H1023   1.086       .  S
C1022      H1024   1.086       .  S
C1025      C1026   1.376       .  D
C1025      H1027   1.083       .  S
C1026      H1028   1.085       .  S
C1029      C1030   1.373       .  D
C1029      H1031   1.086       .  S
C1030      H1032   1.086       .  S
C1033      C1034   1.366       .  D
C1033      H1035   1.087       .  S
C1034      H1036   1.084       .  S
C1037      C1038   1.377       .  D
C1037      H1039   1.081       .  S
C1038      H1040   1.086       .  S
C1041      C1042   1.376       .  D
C1041      H1043   1.086       .  S
C1042      H1044   1.082       .  S
C1045      C1046   1.372       .  D
C1045      H1047   1.087       .  S
C1046      H1048   1.083       .  S
C1049      C1295   1.572       .  S
C1049      C1300   1.593       .  S
C1049      C1303   1.581       .  S
C1049      C1307   1.581       .  S
C1050      C1279   1.574       .  S
C1050      C1284   1.572       .  S
C1050      C1288   1.583       .  S
C1050      C1292   1.573       .  S
N1051      N1052   1.320       .  A
N1051      N1057   1.319       .  A
N1051     Mn1604   2.226       .  S
N1052      C1059   1.352       .  A
N1053      N1054   1.315       .  A
N1053     Mn1069   2.211   1_455  S
N1055      N1056   1.320       .  A
N1055     Mn1080   2.184       .  S
N1056      C1060   1.347       .  A
C1059      C1266   1.419       .  S
C1060      C1275   1.420       .  S
N1061      N1067   1.314       .  A
N1061      N1324   1.321       .  A
N1061     Mn1877   2.197   1_545  S
N1062      N1323   1.319       .  A
N1062      C1332   1.352       .  A
N1063      N1064   1.334       .  A
N1063      N1065   1.316       .  A
N1063     Mn1593   2.246       .  S
N1064      C1071   1.363       .  A
N1065      N1066   1.328       .  A
N1065     Mn1353   2.260       .  S
N1066      C1071   1.360       .  A
N1067      N1068   1.319       .  A
N1067     Mn1069   2.192       .  S
N1068      C1070   1.348       .  A
Mn1069     N1587   2.260   1_545  S
Mn1069    Cl1093   2.554   1_655  S
C1070      N1324   1.352       .  A
C1070      C1255   1.434       .  S
C1071      C1296   1.520       .  S
N1072      N1073   1.330       .  A
N1072      N1078   1.316       .  A
N1072     Mn1342   2.270   1_554  S
N1073      C1081   1.363       .  A
N1074      N1338   1.312       .  A
N1074      N1075   1.316       .  A
N1074     Mn1092   2.176       .  S
N1075      C1082   1.344       .  A
N1076      N1336   1.313       .  A
N1076      N1077   1.322       .  A
N1076     Mn1604   2.193       .  S
N1077      C1344   1.353       .  A
N1078      N1079   1.333       .  A
N1078     Mn1616   2.234       .  S
N1079      C1081   1.361       .  A
Mn1080     N1575   2.227   1_545  S
Mn1080     N1334   2.274       .  S
Mn1080     N1600   2.200   1_545  S
C1081      C1291   1.524       .  S
C1082      N1339   1.355       .  A
C1082      C1259   1.430       .  S
N1083      N1084   1.322       .  A
N1083      N1089   1.320       .  A
N1083     Mn1091   2.192       .  S
N1084      C1094   1.351       .  A
N1085      N1086   1.316       .  A
N1085      N1087   1.322       .  A
N1086      C1095   1.343       .  A
N1087      N1088   1.321       .  A
N1087     Mn1615   2.233   1_545  S
N1088      C1095   1.352       .  A
Mn1091     N1847   2.198   1_554  S
Mn1091     N1327   2.257   1_554  S
Mn1091     N1611   2.217       .  S
Mn1091    Cl1879   2.547       .  S
Mn1092     N1602   2.251       .  S
Cl1093    Mn1877   2.548   1_445  S
C1094      C1274   1.426       .  S
C1095      C1270   1.426       .  S
N1096      N1097   1.314       .  A
N1096      N1102   1.320       .  A
N1096     Mn1387   2.194       .  S
N1097      C1104   1.342       .  A
N1098      N1100   1.319       .  A
N1098      N1099   1.319       .  A
N1098     Mn1114   2.218       .  S
N1099      C1105   1.349       .  A
N1100      N1101   1.319       .  A
N1100     Mn1125   2.179       .  S
N1101      C1105   1.347       .  A
N1102      N1103   1.326       .  A
N1102     Mn1376   2.218       .  S
N1103      C1104   1.356       .  A
C1104      C1258   1.432       .  S
C1105      C1254   1.426       .  S
N1106      N1112   1.314       .  A
N1106      N1107   1.319       .  A
N1106     Mn1398   2.197   1_554  S
N1107      C1115   1.351       .  A
N1108      N1109   1.339       .  A
N1108      N1110   1.319       .  A
N1108     Mn1376   2.285       .  S
N1109      C1116   1.368       .  A
N1110      N1111   1.331       .  A
N1110     Mn1136   2.260       .  S
N1111      C1116   1.361       .  A
N1112      N1113   1.318       .  A
N1112     Mn1114   2.184       .  S
N1113      C1115   1.349       .  A
Mn1114     N1364   2.204       .  S
Mn1114     N1370   2.266   1_554  S
Mn1114    Cl1138   2.578       .  S
C1115      C1242   1.427       .  S
C1116      C1299   1.538       .  S
N1117      N1118   1.326       .  A
N1117      N1123   1.320       .  A
N1117     Mn1125   2.245       .  S
N1118      C1126   1.356       .  A
N1119      N1121   1.313       .  A
N1119      N1120   1.319       .  A
N1119     Mn1137   2.188       .  S
N1120      C1127   1.350       .  A
N1121      N1122   1.319       .  A
N1121     Mn1387   2.193       .  S
N1122      C1127   1.351       .  A
N1123      N1124   1.339       .  A
N1123     Mn1399   2.277   1_554  S
N1124      C1126   1.367       .  A
Mn1125     N1358   2.207       .  S
Mn1125     N1383   2.183       .  S
Mn1125    Cl1138   2.540       .  S
C1126      C1287   1.529       .  S
C1127      C1246   1.432       .  S
N1128      N1129   1.321       .  A
N1128      N1134   1.321       .  A
N1128     Mn1136   2.192       .  S
N1129      C1139   1.349       .  A
N1130      N1131   1.326       .  A
N1130      N1132   1.321   1_554  A
N1130     Mn1399   2.212   1_554  S
N1131      C1140   1.355       .  A
N1132      N1133   1.313   1_556  A
N1132     Mn1398   2.198       .  S
N1133      C1140   1.341       .  A
N1134      N1135   1.318       .  A
N1134     Mn1137   2.221       .  S
N1135      C1139   1.348       .  A
Mn1136     N1368   2.210       .  S
Mn1136     N1394   2.202       .  S
Mn1136    Cl1400   2.539       .  S
Mn1137     N1385   2.293       .  S
Mn1137     N1392   2.210       .  S
Mn1137    Cl1400   2.587       .  S
Cl1138    Mn1398   2.538   1_554  S
Cl1138    Mn1399   2.580   1_554  S
C1139      C1250   1.428       .  S
C1140      C1262   1.427       .  S
N1141      N1142   1.319       .  A
N1141      N1147   1.320       .  A
N1141     Mn1170   2.223       .  S
N1142      C1149   1.349       .  A
N1143      N1145   1.319       .  A
N1143     Mn1159   2.221   1_455  S
N1144      C1150   1.353       .  A
N1145     Mn1170   2.177   1_455  S
N1146      C1150   1.343       .  A
N1147      N1148   1.319       .  A
N1147     Mn1159   2.183       .  S
N1148      C1149   1.347       .  A
C1149      C1251   1.425       .  S
C1150      C1271   1.419       .  S
N1151      N1157   1.313       .  A
N1151      N1152   1.314       .  A
N1151     Mn1181   2.170       .  S
N1152      C1160   1.342       .  A
N1153      N1154   1.331       .  A
N1153      N1155   1.316       .  A
N1153     Mn1159   2.266       .  S
N1154      C1161   1.363       .  A
N1155      N1156   1.336       .  A
N1156      C1161   1.366       .  A
N1157      N1158   1.323       .  A
N1158      C1160   1.352       .  A
Mn1159    Cl1183   2.544   1_655  S
C1160      C1235   1.425       .  S
C1161      C1308   1.531       .  S
N1162      N1163   1.326       .  A
N1162      N1168   1.315       .  A
N1163      C1171   1.357       .  A
N1164      N1166   1.315       .  A
N1164      N1165   1.322       .  A
N1165      C1172   1.351       .  A
N1166      N1167   1.315       .  A
N1166     Mn1170   2.178       .  S
N1167      C1172   1.343       .  A
N1168      N1169   1.338       .  A
N1168     Mn1182   2.280       .  S
N1169      C1171   1.368       .  A
Mn1170    Cl1183   2.561   1_655  S
C1171      C1283   1.525       .  S
C1172      C1234   1.426       .  S
N1173      N1179   1.321       .  A
N1173     Mn1181   2.164       .  S
N1174      C1184   1.345       .  A
N1175      N1176   1.321       .  A
N1175      N1177   1.321       .  A
N1175     Mn1182   2.185       .  S
N1176      C1185   1.348       .  A
N1177      N1178   1.319       .  A
N1177     Mn1181   2.234       .  S
N1178      C1185   1.349       .  A
N1179     Mn1182   2.228       .  S
N1180      C1184   1.351       .  A
C1184      C1278   1.423       .  S
C1185      C1247   1.428       .  S
N1186      N1187   1.327       .  A
N1186      N1192   1.317       .  A
N1186     Mn1215   2.235       .  S
N1187      C1194   1.356       .  A
N1188      N1190   1.313       .  A
N1188      N1189   1.319       .  A
N1188     Mn1204   2.188       .  S
N1189      C1195   1.349       .  A
N1190      N1191   1.321       .  A
N1190     Mn1739   2.198   1_545  S
N1191      C1195   1.352       .  A
N1192      N1193   1.340       .  A
N1192     Mn1728   2.283       .  S
N1193      C1194   1.369       .  A
C1194      C1304   1.531       .  S
C1195      C1243   1.433       .  S
N1196      N1202   1.317       .  A
N1196      N1197   1.322       .  A
N1196     Mn1226   2.195       .  S
N1197      C1205   1.353       .  A
N1198      N1199   1.321       .  A
N1198      N1200   1.323       .  A
N1198     Mn1728   2.194       .  S
N1199      C1206   1.350       .  A
N1200      N1201   1.315       .  A
N1200     Mn1750   2.213       .  S
N1201      C1206   1.345       .  A
N1202      N1203   1.314       .  A
N1202     Mn1204   2.197       .  S
N1203      C1205   1.345       .  A
Mn1204     N1716   2.251   1_545  S
Mn1204     N1722   2.211       .  S
Mn1204    Cl1228   2.548       .  S
C1205      C1231   1.422       .  S
C1206      C1267   1.423       .  S
N1207      N1208   1.316       .  A
N1207      N1213   1.322   1_565  A
N1207     Mn1739   2.213       .  S
N1208      C1216   1.345   1_565  A
N1209      N1211   1.318       .  A
N1209      N1210   1.313       .  A
N1209     Mn1227   2.191       .  S
N1210      C1217   1.344       .  A
N1211      N1212   1.322       .  A
N1211     Mn1215   2.207       .  S
N1212      C1217   1.354       .  A
N1213      N1214   1.322       .  A
N1213     Mn1751   2.194       .  S
N1214      C1216   1.350       .  A
Mn1215     N1714   2.209       .  S
Mn1215     N1731   2.187       .  S
Mn1215    Cl1752   2.551       .  S
C1216      C1263   1.425   1_545  S
C1217      C1238   1.422       .  S
N1218      N1219   1.320       .  A
N1218      N1224   1.311       .  A
N1218     Mn1750   2.186       .  S
N1219      C1229   1.350       .  A
N1220      N1221   1.334       .  A
N1220      N1222   1.317       .  A
N1220     Mn1751   2.258       .  S
N1221      C1230   1.363       .  A
N1222      N1223   1.329       .  A
N1222     Mn1226   2.240       .  S
N1223      C1230   1.358       .  A
N1224      N1225   1.318       .  A
N1224     Mn1227   2.182       .  S
N1225      C1229   1.349       .  A
Mn1226     N1724   2.189       .  S
Mn1226     N1742   2.200       .  S
Mn1226    Cl1228   2.555       .  S
Mn1227     N1737   2.188       .  S
Mn1227     N1744   2.237       .  S
Mn1227    Cl1752   2.545       .  S
Cl1228    Mn1739   2.560   1_545  S
Cl1228    Mn1751   2.551       .  S
C1229      C1239   1.428       .  S
C1230      C1280   1.520       .  S
C1231      C1232   1.198       .  T
C1232      C1233   1.403       .  S
C1233      C1234   1.200       .  T
C1235      C1236   1.200       .  T
C1236      C1237   1.403       .  S
C1237      C1238   1.199       .  T
C1239      C1240   1.201       .  T
C1240      C1241   1.404       .  S
C1241      C1242   1.201       .  T
C1243      C1244   1.204       .  T
C1244      C1245   1.409       .  S
C1245      C1246   1.203       .  T
C1247      C1248   1.200       .  T
C1248      C1249   1.403       .  S
C1249      C1250   1.200       .  T
C1251      C1252   1.199       .  T
C1252      C1253   1.400       .  S
C1253      C1254   1.199       .  T
C1255      C1256   1.205       .  T
C1256      C1257   1.410       .  S
C1257      C1258   1.204       .  T
C1259      C1260   1.203       .  T
C1260      C1261   1.407       .  S
C1261      C1262   1.202       .  T
C1263      C1264   1.200       .  T
C1264      C1789   1.403       .  S
C1265      C1266   1.196       .  T
C1265      C1788   1.397       .  S
C1267      C1268   1.198       .  T
C1268      C1793   1.400       .  S
C1269      C1270   1.201       .  T
C1269      C1792   1.405       .  S
C1272      C1273   1.402       .  S
C1273      C1274   1.200   1_455  T
C1276      C1277   1.398       .  S
C1277      C1278   1.197   1_455  T
C1279      C1280   1.364       .  D
C1279      H1281   1.090       .  S
C1280      H1282   1.087       .  S
C1283      C1284   1.366       .  D
C1283      H1285   1.081       .  S
C1284      H1286   1.083       .  S
C1287      C1288   1.370       .  D
C1287      H1289   1.075       .  S
C1288      H1290   1.079       .  S
C1291      C1292   1.369       .  D
C1291      H1293   1.086       .  S
C1292      H1294   1.089       .  S
C1295      C1296   1.368       .  D
C1295      H1297   1.087       .  S
C1296      H1298   1.086       .  S
C1299      C1300   1.375       .  D
C1299      H1301   1.083       .  S
C1300      H1302   1.084       .  S
C1303      C1304   1.367       .  D
C1303      H1305   1.085       .  S
C1304      H1306   1.082       .  S
C1307      C1308   1.376       .  D
C1307      H1309   1.086       .  S
C1308      H1310   1.084       .  S
C1311      C1557   1.579       .  S
C1311      C1562   1.588       .  S
C1311      C1565   1.587       .  S
C1311      C1569   1.579       .  S
C1312      C1541   1.586       .  S
C1312      C1546   1.581       .  S
C1312      C1550   1.590       .  S
C1312      C1554   1.578       .  S
N1313      N1314   1.319       .  A
N1313      N1319   1.320       .  A
N1313     Mn1866   2.222       .  S
N1314      C1321   1.350       .  A
N1315      N1316   1.313       .  A
N1315     Mn1331   2.189   1_455  S
N1317      N1318   1.321       .  A
N1317     Mn1342   2.181       .  S
N1318      C1322   1.349       .  A
C1321      C1528   1.422       .  S
C1322      C1537   1.416       .  S
N1323      N1329   1.313       .  A
N1323     Mn1615   2.196   1_546  S
N1325      N1326   1.337       .  A
N1325      N1327   1.316       .  A
N1325     Mn1855   2.259       .  S
N1326      C1333   1.366       .  A
N1327      N1328   1.328       .  A
N1328      C1333   1.360       .  A
N1329      N1330   1.319       .  A
N1329     Mn1331   2.188       .  S
N1330      C1332   1.349       .  A
Mn1331     N1849   2.223   1_545  S
Mn1331    Cl1355   2.536   1_655  S
C1332      C1517   1.429       .  S
C1333      C1558   1.529       .  S
N1334      N1335   1.331       .  A
N1334      N1340   1.316       .  A
N1335      C1343   1.364       .  A
N1336      N1337   1.315       .  A
N1336     Mn1354   2.172       .  S
N1337      C1344   1.342       .  A
N1338      N1339   1.322       .  A
N1338     Mn1866   2.201   1_554  S
N1340      N1341   1.335       .  A
N1340     Mn1878   2.245       .  S
N1341      C1343   1.363       .  A
Mn1342     N1837   2.233   1_545  S
Mn1342     N1862   2.198   1_546  S
C1343      C1553   1.529       .  S
C1344      C1521   1.425       .  S
N1345      N1346   1.319       .  A
N1345      N1351   1.320       .  A
N1345     Mn1353   2.169       .  S
N1346      C1356   1.345       .  A
N1347      N1348   1.316       .  A
N1347      N1349   1.319       .  A
N1348      C1357   1.344       .  A
N1349      N1350   1.319       .  A
N1349     Mn1877   2.221   1_545  S
N1350      C1357   1.350       .  A
Mn1353     N1585   2.194       .  S
Mn1353     N1873   2.231       .  S
Mn1353    Cl1617   2.559   1_655  S
Mn1354     N1864   2.239       .  S
Cl1355    Mn1615   2.565   1_446  S
C1356      C1536   1.416       .  S
C1357      C1532   1.422       .  S
N1358      N1359   1.317       .  A
N1358      N1364   1.321       .  A
N1359      C1366   1.345   1_554  A
N1360      N1362   1.320       .  A
N1360      N1361   1.321       .  A
N1360     Mn1376   2.232       .  S
N1361      C1367   1.352       .  A
N1362      N1363   1.317       .  A
N1362     Mn1387   2.174       .  S
N1363      C1367   1.345       .  A
N1364      N1365   1.323   1_554  A
N1365      C1366   1.352       .  A
C1366      C1520   1.430       .  S
C1367      C1516   1.424       .  S
N1368      N1374   1.314       .  A
N1368      N1369   1.323       .  A
N1369      C1377   1.354       .  A
N1370      N1371   1.339       .  A
N1370      N1372   1.318       .  A
N1371      C1378   1.365       .  A
N1372      N1373   1.329       .  A
N1372     Mn1398   2.253       .  S
N1373      C1378   1.360       .  A
N1374      N1375   1.321       .  A
N1374     Mn1376   2.200       .  S
N1375      C1377   1.352       .  A
Mn1376    Cl1400   2.586       .  S
C1377      C1504   1.442       .  S
C1378      C1561   1.534       .  S
N1379      N1380   1.326       .  A
N1379      N1385   1.318       .  A
N1379     Mn1387   2.237       .  S
N1380      C1388   1.355       .  A
N1381      N1383   1.313   1_556  A
N1381      N1382   1.320       .  A
N1381     Mn1399   2.194       .  S
N1382      C1389   1.351       .  A
N1383      N1384   1.318   1_554  A
N1384      C1389   1.349       .  A
N1385      N1386   1.344       .  A
N1386      C1388   1.372       .  A
Mn1387    Cl1400   2.534       .  S
C1388      C1549   1.540       .  S
C1389      C1508   1.429       .  S
N1390      N1391   1.320       .  A
N1390      N1396   1.321       .  A
N1390     Mn1398   2.193       .  S
N1391      C1401   1.349       .  A
N1392      N1393   1.325       .  A
N1392      N1394   1.323       .  A
N1393      C1402   1.353       .  A
N1394      N1395   1.312       .  A
N1395      C1402   1.341       .  A
N1396      N1397   1.319       .  A
N1396     Mn1399   2.222       .  S
N1397      C1401   1.349       .  A
C1401      C1512   1.428       .  S
C1402      C1524   1.423       .  S
N1403      N1404   1.319       .  A
N1403      N1409   1.318       .  A
N1403     Mn1432   2.212       .  S
N1404      C1411   1.350       .  A
N1405      N1407   1.317       .  A
N1405     Mn1421   2.213       .  S
N1406      C1412   1.355       .  A
N1407     Mn1432   2.159       .  S
N1408      C1412   1.340       .  A
N1409      N1410   1.318       .  A
N1409     Mn1421   2.180       .  S
N1410      C1411   1.347       .  A
C1411      C1513   1.423       .  S
C1412      C1533   1.417       .  S
N1413      N1419   1.313       .  A
N1413      N1414   1.316       .  A
N1413     Mn1443   2.172       .  S
N1414      C1422   1.345       .  A
N1415      N1416   1.326       .  A
N1415      N1417   1.316       .  A
N1415     Mn1421   2.247       .  S
N1416      C1423   1.357       .  A
N1417      N1418   1.340       .  A
N1418      C1423   1.370       .  A
N1419      N1420   1.322       .  A
N1420      C1422   1.353       .  A
Mn1421    Cl1445   2.545       .  S
C1422      C1497   1.430       .  S
C1423      C1570   1.531       .  S
N1424      N1425   1.328       .  A
N1424      N1430   1.315       .  A
N1425      C1433   1.361       .  A
N1426      N1428   1.313       .  A
N1426      N1427   1.321       .  A
N1427      C1434   1.351       .  A
N1428      N1429   1.315       .  A
N1428     Mn1432   2.169       .  S
N1429      C1434   1.343       .  A
N1430      N1431   1.339       .  A
N1430     Mn1444   2.276       .  S
N1431      C1433   1.368       .  A
Mn1432    Cl1445   2.547       .  S
C1433      C1545   1.532       .  S
C1434      C1496   1.424       .  S
N1435      N1441   1.318       .  A
N1435     Mn1443   2.157       .  S
N1436      C1446   1.344       .  A
N1437      N1438   1.321       .  A
N1437      N1439   1.320       .  A
N1437     Mn1444   2.188       .  S
N1438      C1447   1.350       .  A
N1439      N1440   1.317       .  A
N1439     Mn1443   2.218       .  S
N1440      C1447   1.348       .  A
N1441     Mn1444   2.224       .  S
N1442      C1446   1.352   1_455  A
C1446      C1540   1.424       .  S
C1447      C1509   1.426       .  S
N1448      N1449   1.338       .  A
N1448      N1454   1.317       .  A
N1448     Mn1477   2.275       .  S
N1449      C1456   1.367       .  A
N1450      N1452   1.313       .  A
N1450      N1451   1.318       .  A
N1450     Mn1466   2.181       .  S
N1451      C1457   1.349       .  A
N1452      N1453   1.320       .  A
N1452     Mn2001   2.196   1_545  S
N1453      C1457   1.351       .  A
N1454      N1455   1.325       .  A
N1454     Mn1990   2.235       .  S
N1455      C1456   1.356       .  A
C1456      C1566   1.521       .  S
C1457      C1505   1.429       .  S
N1458      N1464   1.321       .  A
N1458      N1459   1.321       .  A
N1458     Mn1488   2.203       .  S
N1459      C1467   1.352       .  A
N1460      N1461   1.322       .  A
N1460      N1462   1.318       .  A
N1460     Mn1990   2.190       .  S
N1461      C1468   1.350       .  A
N1462      N1463   1.313       .  A
N1462     Mn2012   2.192       .  S
N1463      C1468   1.344       .  A
N1464      N1465   1.315       .  A
N1464     Mn1466   2.202       .  S
N1465      C1467   1.345       .  A
Mn1466     N1978   2.258   1_545  S
Mn1466     N1984   2.193       .  S
Mn1466    Cl1490   2.565       .  S
C1467      C1493   1.423       .  S
C1468      C1529   1.419       .  S
N1469      N1470   1.314       .  A
N1469      N1475   1.321   1_565  A
N1469     Mn2001   2.206       .  S
N1470      C1478   1.344   1_565  A
N1471      N1473   1.323       .  A
N1471      N1472   1.317       .  A
N1471     Mn1489   2.208       .  S
N1472      C1479   1.345       .  A
N1473      N1474   1.322       .  A
N1473     Mn1477   2.212       .  S
N1474      C1479   1.352       .  A
N1475      N1476   1.323       .  A
N1475     Mn2013   2.200       .  S
N1476      C1478   1.352       .  A
Mn1477     N1976   2.215       .  S
Mn1477     N1993   2.204       .  S
Mn1477    Cl2014   2.555       .  S
C1478      C1525   1.426       .  S
C1479      C1500   1.429       .  S
N1480      N1481   1.324       .  A
N1480      N1486   1.314       .  A
N1480     Mn2012   2.215       .  S
N1481      C1491   1.356       .  A
N1482      N1483   1.335       .  A
N1482      N1484   1.318       .  A
N1482     Mn2013   2.257       .  S
N1483      C1492   1.362       .  A
N1484      N1485   1.334       .  A
N1484     Mn1488   2.273       .  S
N1485      C1492   1.365       .  A
N1486      N1487   1.319       .  A
N1486     Mn1489   2.190       .  S
N1487      C1491   1.349       .  A
Mn1488     N1986   2.205       .  S
Mn1488     N2004   2.200       .  S
Mn1488    Cl1490   2.544       .  S
Mn1489     N1999   2.201       .  S
Mn1489     N2006   2.268       .  S
Mn1489    Cl2014   2.554       .  S
Cl1490    Mn2001   2.541   1_545  S
Cl1490    Mn2013   2.565       .  S
C1491      C1501   1.442       .  S
C1492      C1542   1.535       .  S
C1493      C1494   1.199       .  T
C1494      C1495   1.402       .  S
C1495      C1496   1.200       .  T
C1497      C1498   1.203       .  T
C1498      C1499   1.407       .  S
C1499      C1500   1.202       .  T
C1501      C1502   1.209       .  T
C1502      C1503   1.418       .  S
C1503      C1504   1.209       .  T
C1505      C1506   1.202       .  T
C1506      C1507   1.406       .  S
C1507      C1508   1.202       .  T
C1509      C1510   1.200       .  T
C1510      C1511   1.403       .  S
C1511      C1512   1.200       .  T
C1513      C1514   1.197       .  T
C1514      C1515   1.398       .  S
C1515      C1516   1.198       .  T
C1517      C1518   1.202       .  T
C1518      C1519   1.406       .  S
C1519      C1520   1.202       .  T
C1521      C1522   1.200       .  T
C1522      C1523   1.403       .  S
C1523      C1524   1.199       .  T
C1525      C1526   1.200   1_545  T
C1526      C2051   1.405       .  S
C1527      C1528   1.198       .  T
C1527      C2050   1.401       .  S
C1529      C1530   1.196       .  T
C1530      C2055   1.399       .  S
C1531      C1532   1.198       .  T
C1531      C2054   1.401       .  S
C1534      C1535   1.392   1_455  S
C1535      C1536   1.193       .  T
C1538      C1539   1.399       .  S
C1539      C1540   1.198   1_455  T
C1541      C1542   1.374       .  D
C1541      H1543   1.088       .  S
C1542      H1544   1.086       .  S
C1545      C1546   1.373       .  D
C1545      H1547   1.086       .  S
C1546      H1548   1.087       .  S
C1549      C1550   1.374       .  D
C1549      H1551   1.070       .  S
C1550      H1552   1.075       .  S
C1553      C1554   1.371       .  D
C1553      H1555   1.082       .  S
C1554      H1556   1.084       .  S
C1557      C1558   1.368       .  D
C1557      H1559   1.087       .  S
C1558      H1560   1.084       .  S
C1561      C1562   1.377       .  D
C1561      H1563   1.081       .  S
C1562      H1564   1.085       .  S
C1565      C1566   1.373       .  D
C1565      H1567   1.086       .  S
C1566      H1568   1.084       .  S
C1569      C1570   1.370       .  D
C1569      H1571   1.087       .  S
C1570      H1572   1.084       .  S
C1573      C1819   1.582       .  S
C1573      C1824   1.593       .  S
C1573      C1827   1.597       .  S
C1573      C1831   1.581       .  S
C1574      C1803   1.577       .  S
C1574      C1808   1.581       .  S
C1574      C1812   1.585       .  S
C1574      C1816   1.578       .  S
N1575      N1576   1.319       .  A
N1575      N1581   1.322       .  A
N1576      C1583   1.350       .  A
N1577      N1578   1.314   1_455  A
N1577     Mn1593   2.205   1_455  S
N1579      N1580   1.321       .  A
N1579     Mn1604   2.183       .  S
N1580      C1584   1.349       .  A
C1583      C1790   1.425       .  S
C1584      C1799   1.421       .  S
N1585      N1591   1.313       .  A
N1585      N1848   1.321       .  A
N1586      N1847   1.322   1_554  A
N1586      C1856   1.352   1_554  A
N1587      N1588   1.337       .  A
N1587      N1589   1.315       .  A
N1588      C1595   1.366       .  A
N1589      N1590   1.329       .  A
N1589     Mn1877   2.257       .  S
N1590      C1595   1.361       .  A
N1591      N1592   1.314       .  A
N1591     Mn1593   2.171       .  S
N1592      C1594   1.343       .  A
Mn1593    Cl1617   2.541   1_655  S
C1594      N1848   1.355       .  A
C1594      C1779   1.422       .  S
C1595      C1820   1.530       .  S
N1596      N1597   1.329       .  A
N1596      N1602   1.316       .  A
N1596     Mn1866   2.267   1_554  S
N1597      C1605   1.362       .  A
N1598      N1862   1.314       .  A
N1598      N1599   1.316       .  A
N1598     Mn1616   2.180   1_565  S
N1599      C1606   1.344       .  A
N1600      N1860   1.312       .  A
N1600      N1601   1.323       .  A
N1601      C1868   1.355       .  A
N1602      N1603   1.336       .  A
N1603      C1605   1.364       .  A
Mn1604     N1858   2.271       .  S
C1605      C1815   1.527       .  S
C1606      N1863   1.353       .  A
C1606      C1783   1.428       .  S
N1607      N1608   1.320       .  A
N1607      N1613   1.322       .  A
N1607     Mn1615   2.174       .  S
N1608      C1618   1.346       .  A
N1609      N1610   1.317       .  A
N1609      N1611   1.318       .  A
N1610      C1619   1.345       .  A
N1611      N1612   1.319       .  A
N1612      C1619   1.350       .  A
Mn1615     N1851   2.273   1_554  S
C1618      C1798   1.418       .  S
C1619      C1794   1.423       .  S
N1620      N1621   1.314       .  A
N1620      N1626   1.321       .  A
N1620     Mn1911   2.202       .  S
N1621      C1628   1.343       .  A
N1622      N1624   1.319       .  A
N1622      N1623   1.319       .  A
N1622     Mn1638   2.217       .  S
N1623      C1629   1.349       .  A
N1624      N1625   1.319       .  A
N1624     Mn1649   2.184       .  S
N1625      C1629   1.347       .  A
N1626      N1627   1.323       .  A
N1626     Mn1900   2.196       .  S
N1627      C1628   1.350       .  A
C1628      C1782   1.420       .  S
C1629      C1778   1.425       .  S
N1630      N1636   1.313       .  A
N1630      N1631   1.320       .  A
N1630     Mn1922   2.195   1_554  S
N1631      C1639   1.351       .  A
N1632      N1633   1.341       .  A
N1632      N1634   1.317       .  A
N1632     Mn1900   2.279       .  S
N1633      C1640   1.369       .  A
N1634      N1635   1.329       .  A
N1634     Mn1660   2.253       .  S
N1635      C1640   1.359       .  A
N1636      N1637   1.320       .  A
N1636     Mn1638   2.191       .  S
N1637      C1639   1.351       .  A
Mn1638     N1888   2.203       .  S
Mn1638     N1894   2.265   1_554  S
Mn1638    Cl1662   2.568       .  S
C1639      C1766   1.433       .  S
C1640      C1823   1.539       .  S
N1641      N1642   1.327       .  A
N1641      N1647   1.316       .  A
N1641     Mn1649   2.237       .  S
N1642      C1650   1.357       .  A
N1643      N1645   1.313       .  A
N1643      N1644   1.320       .  A
N1643     Mn1661   2.196       .  S
N1644      C1651   1.351       .  A
N1645      N1646   1.322       .  A
N1645     Mn1911   2.202       .  S
N1646      C1651   1.353       .  A
N1647      N1648   1.341       .  A
N1647     Mn1923   2.285   1_554  S
N1648      C1650   1.370       .  A
Mn1649     N1882   2.193       .  S
Mn1649     N1907   2.213       .  S
Mn1649    Cl1662   2.545       .  S
C1650      C1811   1.533       .  S
C1651      C1770   1.438       .  S
N1652      N1653   1.319       .  A
N1652      N1658   1.321       .  A
N1652     Mn1660   2.187       .  S
N1653      C1663   1.347       .  A
N1654      N1655   1.324       .  A
N1654      N1656   1.322   1_554  A
N1654     Mn1923   2.209   1_554  S
N1655      C1664   1.353       .  A
N1656      N1657   1.313   1_556  A
N1656     Mn1922   2.201       .  S
N1657      C1664   1.342       .  A
N1658      N1659   1.320       .  A
N1658     Mn1661   2.227       .  S
N1659      C1663   1.349       .  A
Mn1660     N1892   2.199       .  S
Mn1660     N1918   2.194       .  S
Mn1660    Cl1924   2.536       .  S
Mn1661     N1909   2.290       .  S
Mn1661     N1916   2.212       .  S
Mn1661    Cl1924   2.582       .  S
Cl1662    Mn1922   2.551   1_554  S
Cl1662    Mn1923   2.574   1_554  S
C1663      C1774   1.427       .  S
C1664      C1786   1.425       .  S
N1665      N1666   1.320       .  A
N1665      N1671   1.319       .  A
N1665     Mn1694   2.224       .  S
N1666      C1673   1.351       .  A
N1667      N1669   1.317       .  A
N1667     Mn1683   2.214       .  S
N1668      C1674   1.354       .  A
N1669     Mn1694   2.163       .  S
N1670      C1674   1.341       .  A
N1671      N1672   1.319       .  A
N1671     Mn1683   2.174       .  S
N1672      C1673   1.345       .  A
C1673      C1775   1.425       .  S
C1674      C1795   1.417       .  S
N1675      N1681   1.313       .  A
N1675      N1676   1.315       .  A
N1675     Mn1705   2.179       .  S
N1676      C1684   1.345       .  A
N1677      N1678   1.326       .  A
N1677      N1679   1.315       .  A
N1677     Mn1683   2.246       .  S
N1678      C1685   1.357       .  A
N1679      N1680   1.341       .  A
N1680      C1685   1.371       .  A
N1681      N1682   1.323       .  A
N1682      C1684   1.353       .  A
Mn1683    Cl1707   2.549       .  S
C1684      C1759   1.428       .  S
C1685      C1832   1.533       .  S
N1686      N1687   1.326       .  A
N1686      N1692   1.315       .  A
N1687      C1695   1.358       .  A
N1688      N1690   1.313       .  A
N1688      N1689   1.323       .  A
N1689      C1696   1.353       .  A
N1690      N1691   1.316       .  A
N1690     Mn1694   2.170       .  S
N1691      C1696   1.344       .  A
N1692      N1693   1.341       .  A
N1692     Mn1706   2.291       .  S
N1693      C1695   1.371       .  A
Mn1694    Cl1707   2.544       .  S
C1695      C1807   1.533       .  S
C1696      C1758   1.429       .  S
N1697      N1703   1.320       .  A
N1697     Mn1705   2.164       .  S
N1698      C1708   1.344       .  A
N1699      N1700   1.319       .  A
N1699      N1701   1.321       .  A
N1699     Mn1706   2.182       .  S
N1700      C1709   1.347       .  A
N1701      N1702   1.319       .  A
N1701     Mn1705   2.232       .  S
N1702      C1709   1.350       .  A
N1703     Mn1706   2.232       .  S
N1704      C1708   1.352       .  A
C1708      C1802   1.423       .  S
C1709      C1771   1.426       .  S
N1710      N1711   1.341       .  A
N1710      N1716   1.319       .  A
N1710     Mn1739   2.288       .  S
N1711      C1718   1.369       .  A
N1712      N1714   1.314       .  A
N1712      N1713   1.318       .  A
N1712     Mn1728   2.187       .  S
N1713      C1719   1.349       .  A
N1714      N1715   1.323       .  A
N1715      C1719   1.354       .  A
N1716      N1717   1.328       .  A
N1717      C1718   1.359       .  A
C1718      C1828   1.536       .  S
C1719      C1767   1.437       .  S
N1720      N1726   1.322       .  A
N1720      N1721   1.321       .  A
N1720     Mn1750   2.196       .  S
N1721      C1729   1.351       .  A
N1722      N1723   1.324       .  A
N1722      N1724   1.320       .  A
N1723      C1730   1.354       .  A
N1724      N1725   1.313       .  A
N1725      C1730   1.342       .  A
N1726      N1727   1.317       .  A
N1726     Mn1728   2.218       .  S
N1727      C1729   1.346       .  A
Mn1728    Cl1752   2.553       .  S
C1729      C1755   1.428       .  S
C1730      C1791   1.425       .  S
N1731      N1732   1.313       .  A
N1731      N1737   1.318       .  A
N1732      C1740   1.343       .  A
N1733      N1735   1.323       .  A
N1733      N1734   1.314       .  A
N1733     Mn1751   2.204   1_565  S
N1734      C1741   1.343       .  A
N1735      N1736   1.323       .  A
N1735     Mn1739   2.211       .  S
N1736      C1741   1.354       .  A
N1737      N1738   1.322       .  A
N1738      C1740   1.350       .  A
C1740      C1787   1.419       .  S
C1741      C1762   1.427       .  S
N1742      N1743   1.322       .  A
N1742      N1748   1.312   1_545  A
N1743      C1753   1.353   1_545  A
N1744      N1745   1.326       .  A
N1744      N1746   1.318       .  A
N1745      C1754   1.356       .  A
N1746      N1747   1.339       .  A
N1746     Mn1750   2.280       .  S
N1747      C1754   1.368       .  A
N1748      N1749   1.318       .  A
N1748     Mn1751   2.178   1_565  S
N1749      C1753   1.348       .  A
Mn1750    Cl1752   2.558       .  S
C1753      C1763   1.432       .  S
C1754      C1804   1.526       .  S
C1755      C1756   1.202       .  T
C1756      C1757   1.406       .  S
C1757      C1758   1.202       .  T
C1759      C1760   1.202       .  T
C1760      C1761   1.406       .  S
C1761      C1762   1.202       .  T
C1763      C1764   1.203       .  T
C1764      C1765   1.409       .  S
C1765      C1766   1.204       .  T
C1767      C1768   1.207       .  T
C1768      C1769   1.414       .  S
C1769      C1770   1.207       .  T
C1771      C1772   1.199       .  T
C1772      C1773   1.401       .  S
C1773      C1774   1.199       .  T
C1775      C1776   1.198       .  T
C1776      C1777   1.398       .  S
C1777      C1778   1.197       .  T
C1779      C1780   1.198       .  T
C1780      C1781   1.399       .  S
C1781      C1782   1.197       .  T
C1783      C1784   1.201       .  T
C1784      C1785   1.404       .  S
C1785      C1786   1.200       .  T
C1787      C1788   1.196       .  T
C1789      C1790   1.200       .  T
C1791      C1792   1.201       .  T
C1793      C1794   1.198       .  T
C1796      C1797   1.395   1_455  S
C1797      C1798   1.195       .  T
C1800      C1801   1.399   1_455  S
C1801      C1802   1.198       .  T
C1803      C1804   1.369       .  D
C1803      H1805   1.084       .  S
C1804      H1806   1.084       .  S
C1807      C1808   1.370       .  D
C1807      H1809   1.090       .  S
C1808      H1810   1.089       .  S
C1811      C1812   1.372       .  D
C1811      H1813   1.086       .  S
C1812      H1814   1.087       .  S
C1815      C1816   1.370       .  D
C1815      H1817   1.088       .  S
C1816      H1818   1.089       .  S
C1819      C1820   1.371       .  D
C1819      H1821   1.087       .  S
C1820      H1822   1.084       .  S
C1823      C1824   1.377       .  D
C1823      H1825   1.083       .  S
C1824      H1826   1.086       .  S
C1827      C1828   1.380       .  D
C1827      H1829   1.085       .  S
C1828      H1830   1.083       .  S
C1831      C1832   1.371       .  D
C1831      H1833   1.087       .  S
C1832      H1834   1.085       .  S
C1835      C2081   1.571       .  S
C1835      C2086   1.583       .  S
C1835      C2089   1.593       .  S
C1835      C2093   1.580       .  S
C1836      C2065   1.576       .  S
C1836      C2070   1.578       .  S
C1836      C2074   1.589       .  S
C1836      C2078   1.574       .  S
N1837      N1838   1.320       .  A
N1837      N1843   1.322       .  A
N1838      C1845   1.351       .  A
N1839      N1840   1.316       .  A
N1839     Mn1855   2.214       .  S
N1841      N1842   1.323       .  A
N1841     Mn1866   2.195       .  S
N1842      C1846   1.350       .  A
C1845      C2052   1.428       .  S
C1846      C2061   1.424       .  S
N1847      N1853   1.314       .  A
N1849      N1850   1.325       .  A
N1849      N1851   1.314       .  A
N1850      C1857   1.356       .  A
N1851      N1852   1.337       .  A
N1852      C1857   1.367       .  A
N1853      N1854   1.316       .  A
N1853     Mn1855   2.178       .  S
N1854      C1856   1.343       .  A
Mn1855    Cl1879   2.558   1_556  S
C1856      C2041   1.428       .  S
C1857      C2082   1.522       .  S
N1858      N1859   1.330       .  A
N1858      N1864   1.316       .  A
N1859      C1867   1.363       .  A
N1860      N1861   1.316       .  A
N1860     Mn1878   2.175   1_565  S
N1861      C1868   1.344       .  A
N1862      N1863   1.322       .  A
N1864      N1865   1.334       .  A
N1865      C1867   1.362       .  A
C1867      C2077   1.524       .  S
C1868      C2045   1.429       .  S
N1869      N1870   1.322       .  A
N1869      N1875   1.320       .  A
N1869     Mn1877   2.182       .  S
N1870      C1880   1.348       .  A
N1871      N1872   1.314       .  A
N1871      N1873   1.320       .  A
N1872      C1881   1.341       .  A
N1873      N1874   1.321       .  A
N1874      C1881   1.353       .  A
C1880      C2060   1.418       .  S
C1881      C2056   1.421       .  S
N1882      N1883   1.313       .  A
N1882      N1888   1.319       .  A
N1883      C1890   1.342       .  A
N1884      N1886   1.320       .  A
N1884      N1885   1.318       .  A
N1884     Mn1900   2.218       .  S
N1885      C1891   1.348       .  A
N1886      N1887   1.320       .  A
N1886     Mn1911   2.186       .  S
N1887      C1891   1.348       .  A
N1888      N1889   1.325       .  A
N1889      C1890   1.353       .  A
C1890      C2044   1.424       .  S
C1891      C2040   1.426       .  S
N1892      N1898   1.313       .  A
N1892      N1893   1.320       .  A
N1893      C1901   1.352       .  A
N1894      N1895   1.331       .  A
N1894      N1896   1.319       .  A
N1895      C1902   1.362       .  A
N1896      N1897   1.335       .  A
N1896     Mn1922   2.257       .  S
N1897      C1902   1.362       .  A
N1898      N1899   1.319       .  A
N1898     Mn1900   2.185       .  S
N1899      C1901   1.350       .  A
Mn1900    Cl1924   2.583       .  S
C1901      C2028   1.432       .  S
C1902      C2085   1.529       .  S
N1903      N1904   1.328       .  A
N1903      N1909   1.319       .  A
N1903     Mn1911   2.251       .  S
N1904      C1912   1.358       .  A
N1905      N1907   1.315   1_556  A
N1905      N1906   1.320       .  A
N1905     Mn1923   2.201       .  S
N1906      C1913   1.351       .  A
N1907      N1908   1.323   1_554  A
N1908      C1913   1.354       .  A
N1909      N1910   1.341       .  A
N1910      C1912   1.370       .  A
Mn1911    Cl1924   2.541       .  S
C1912      C2073   1.538       .  S
C1913      C2032   1.443       .  S
N1914      N1915   1.321       .  A
N1914      N1920   1.322       .  A
N1914     Mn1922   2.194       .  S
N1915      C1925   1.350       .  A
N1916      N1917   1.326       .  A
N1916      N1918   1.321       .  A
N1917      C1926   1.355       .  A
N1918      N1919   1.312       .  A
N1919      C1926   1.341       .  A
N1920      N1921   1.319       .  A
N1920     Mn1923   2.226       .  S
N1921      C1925   1.349       .  A
C1925      C2036   1.431       .  S
C1926      C2048   1.426       .  S
N1927      N1928   1.317       .  A
N1927      N1933   1.317       .  A
N1927     Mn1956   2.208       .  S
N1928      C1935   1.348       .  A
N1929      N1931   1.316   1_655  A
N1929     Mn1945   2.221       .  S
N1930      C1936   1.353       .  A
N1931     Mn1956   2.153   1_455  S
N1932      C1936   1.342       .  A
N1933      N1934   1.321       .  A
N1933     Mn1945   2.182       .  S
N1934      C1935   1.348       .  A
C1935      C2037   1.425       .  S
C1936      C2057   1.421       .  S
N1937      N1943   1.315       .  A
N1937      N1938   1.316       .  A
N1937     Mn1967   2.182       .  S
N1938      C1946   1.344       .  A
N1939      N1940   1.326       .  A
N1939      N1941   1.317       .  A
N1939     Mn1945   2.249       .  S
N1940      C1947   1.357       .  A
N1941      N1942   1.340       .  A
N1942      C1947   1.370       .  A
N1943      N1944   1.322       .  A
N1944      C1946   1.351       .  A
Mn1945    Cl1969   2.547       .  S
C1946      C2021   1.427       .  S
C1947      C2094   1.529       .  S
N1948      N1949   1.324       .  A
N1948      N1954   1.317       .  A
N1949      C1957   1.355       .  A
N1950      N1952   1.315       .  A
N1950      N1951   1.321       .  A
N1951      C1958   1.350       .  A
N1952      N1953   1.316       .  A
N1952     Mn1956   2.175       .  S
N1953      C1958   1.344       .  A
N1954      N1955   1.341       .  A
N1954     Mn1968   2.297       .  S
N1955      C1957   1.372       .  A
Mn1956    Cl1969   2.536       .  S
C1957      C2069   1.530       .  S
C1958      C2020   1.424       .  S
N1959      N1965   1.321       .  A
N1959     Mn1967   2.174       .  S
N1960      C1970   1.345       .  A
N1961      N1962   1.321       .  A
N1961      N1963   1.321       .  A
N1961     Mn1968   2.198       .  S
N1962      C1971   1.351       .  A
N1963      N1964   1.319       .  A
N1963     Mn1967   2.228       .  S
N1964      C1971   1.349       .  A
N1965     Mn1968   2.235       .  S
N1966      C1970   1.350       .  A
C1970      C2064   1.423       .  S
C1971      C2033   1.433       .  S
N1972      N1973   1.329       .  A
N1972      N1978   1.318       .  A
N1972     Mn2001   2.260       .  S
N1973      C1980   1.361       .  A
N1974      N1976   1.312       .  A
N1974      N1975   1.320       .  A
N1974     Mn1990   2.186       .  S
N1975      C1981   1.349       .  A
N1976      N1977   1.324       .  A
N1977      C1981   1.356       .  A
N1978      N1979   1.337       .  A
N1979      C1980   1.364       .  A
C1980      C2090   1.530       .  S
C1981      C2029   1.443       .  S
N1982      N1988   1.318       .  A
N1982      N1983   1.321       .  A
N1982     Mn2012   2.202       .  S
N1983      C1991   1.353       .  A
N1984      N1985   1.322       .  A
N1984      N1986   1.321       .  A
N1985      C1992   1.351       .  A
N1986      N1987   1.314       .  A
N1987      C1992   1.344       .  A
N1988      N1989   1.315       .  A
N1988     Mn1990   2.191       .  S
N1989      C1991   1.345       .  A
Mn1990    Cl2014   2.549       .  S
C1991      C2017   1.422       .  S
C1992      C2053   1.422       .  S
N1993      N1994   1.314       .  A
N1993      N1999   1.323       .  A
N1994      C2002   1.343       .  A
N1995      N1997   1.319       .  A
N1995      N1996   1.315       .  A
N1995     Mn2013   2.200   1_565  S
N1996      C2003   1.345       .  A
N1997      N1998   1.321       .  A
N1997     Mn2001   2.199       .  S
N1998      C2003   1.352       .  A
N1999      N2000   1.322       .  A
N2000      C2002   1.350       .  A
C2002      C2049   1.422       .  S
C2003      C2024   1.424       .  S
N2004      N2005   1.322   1_545  A
N2004      N2010   1.313   1_545  A
N2005      C2015   1.352       .  A
N2006      N2007   1.335       .  A
N2006      N2008   1.316       .  A
N2007      C2016   1.365       .  A
N2008      N2009   1.329       .  A
N2008     Mn2012   2.237       .  S
N2009      C2016   1.357       .  A
N2010      N2011   1.318       .  A
N2010     Mn2013   2.179   1_565  S
N2011      C2015   1.348       .  A
Mn2012    Cl2014   2.551       .  S
C2015      C2025   1.432       .  S
C2016      C2066   1.523       .  S
C2017      C2018   1.198       .  T
C2018      C2019   1.400       .  S
C2019      C2020   1.199       .  T
C2021      C2022   1.201       .  T
C2022      C2023   1.403       .  S
C2023      C2024   1.199       .  T
C2025      C2026   1.203       .  T
C2026      C2027   1.408       .  S
C2027      C2028   1.203       .  T
C2029      C2030   1.210       .  T
C2030      C2031   1.419       .  S
C2031      C2032   1.210       .  T
C2033      C2034   1.204       .  T
C2034      C2035   1.408       .  S
C2035      C2036   1.203       .  T
C2037      C2038   1.198       .  T
C2038      C2039   1.400       .  S
C2039      C2040   1.199       .  T
C2041      C2042   1.202       .  T
C2042      C2043   1.404       .  S
C2043      C2044   1.200   1_556  T
C2045      C2046   1.202       .  T
C2046      C2047   1.407       .  S
C2047      C2048   1.201       .  T
C2049      C2050   1.198       .  T
C2051      C2052   1.201       .  T
C2053      C2054   1.198       .  T
C2055      C2056   1.198       .  T
C2058      C2059   1.394       .  S
C2059      C2060   1.195   1_455  T
C2062      C2063   1.398       .  S
C2063      C2064   1.197       .  T
C2065      C2066   1.365       .  D
C2065      H2067   1.088       .  S
C2066      H2068   1.085       .  S
C2069      C2070   1.367       .  D
C2069      H2071   1.086       .  S
C2070      H2072   1.086       .  S
C2073      C2074   1.373       .  D
C2073      H2075   1.083       .  S
C2074      H2076   1.086       .  S
C2077      C2078   1.370       .  D
C2077      H2079   1.085       .  S
C2078      H2080   1.088       .  S
C2081      C2082   1.366       .  D
C2081      H2083   1.087       .  S
C2082      H2084   1.085       .  S
C2085      C2086   1.372       .  D
C2085      H2087   1.084       .  S
C2086      H2088   1.078       .  S
C2089      C2090   1.377       .  D
C2089      H2091   1.085       .  S
C2090      H2092   1.077       .  S
C2093      C2094   1.370       .  D
C2093      H2095   1.086       .  S
C2094      H2096   1.084       .  S
