geometry optimzed in LAMMPS
_audit_creation_date              2020-12-01 
_audit_creation_method            'lammps2cif' 
_symmetry_space_group_name_H-M    'P1' 
_symmetry_Int_Tables_number       1 
_symmetry_cell_setting            triclinic 
loop_ 
_symmetry_equiv_pos_as_xyz 
  x,y,z 
_cell_length_a                    41.63690735 
_cell_length_b                    44.28919611807515 
_cell_length_c                    41.71604290294718 
_cell_angle_alpha                 89.831021567836 
_cell_angle_beta                  90.0357487494264 
_cell_angle_gamma                 89.82886167493801 
loop_ 
_atom_site_label 
_atom_site_type_symbol 
_atom_site_fract_x 
_atom_site_fract_y 
_atom_site_fract_z 
_atom_site_charge 
C1          C  0.42382812  0.43411109  0.06572737     0.42700
N2          N  0.45787703  0.46895324  0.05481467     0.01600
C3          C  0.46295438  0.06128458  0.42023955    -0.06300
H4          H  0.47268157  0.44700492  0.39555385     0.07000
C5          C  0.07645288  0.44427676  0.46059417    -0.06700
Co6        Co  0.43955086  0.00451026  0.49641231     0.74200
N7          N  0.46435265  0.47258746  0.43865953    -0.25900
Co8        Co  0.00157777  0.00393223  0.44107676     0.74100
C9          C  0.06552131  0.43175740  0.43008719     0.42800
N10         N  0.05286643  0.46544825  0.03757683     0.01200
N11         N  0.03560331  0.46940667  0.44261169     0.01300
N12         N  0.42258374  0.06045000  0.45647512    -0.46700
H13         H  0.39322103  0.44614716  0.02124681     0.07000
N14         N  0.44079370  0.47271425  0.45980475     0.01600
N15         N  0.03878533  0.03523312  0.44482471     0.01300
C16         C  0.07294583  0.07023955  0.43467000     0.42900
N17         N  0.02931622  0.46582182  0.05872306    -0.25300
C18         C  0.41939608  0.05924508  0.03847198    -0.06200
N19         N  0.45096031  0.44762324  0.07600068    -0.46400
N20         N  0.04581241  0.05689869  0.42402089    -0.46600
C21         C  0.42998442  0.07200561  0.06893419     0.42700
N22         N  0.44352536  0.03844581  0.46181652     0.01500
N23         N  0.03199326  0.03163127  0.06063702    -0.25300
N24         N  0.43671125  0.47063329  0.03130967    -0.25800
N25         N  0.05574456  0.03129057  0.03971334     0.01200
H26         H  0.02292279  0.05793307  0.10309671     0.07100
H27         H  0.10324326  0.05761714  0.47913923     0.07100
N28         N  0.46721264  0.03826948  0.44082060    -0.25900
N29         N  0.05657427  0.46753979  0.46627057    -0.25500
N30         N  0.46062823  0.03474086  0.05667495     0.01600
C31         C  0.42745836  0.43842179  0.42618750     0.43000
C32         C  0.03352540  0.44272392  0.07923676    -0.06700
N33         N  0.05988834  0.03325074  0.46835709    -0.25500
H34         H  0.09680352  0.43791391  0.47527256     0.07100
N35         N  0.41808516  0.45287348  0.45306635    -0.46700
H36         H  0.01857061  0.43794679  0.09980472     0.07100
C37         C  0.06838751  0.06632403  0.07281586     0.42800
C38         C  0.41423663  0.44943578  0.03604991    -0.06200
Co39       Co  0.49489794  0.50026387  0.05836650     0.73800
N40         N  0.07362521  0.44324849  0.04270687    -0.46400
C41         C  0.43332518  0.07606245  0.43077635     0.43100
N42         N  0.45546327  0.05548265  0.07888857    -0.46400
Co43       Co  0.05693472  0.49934381  0.00304322     0.73900
C44         C  0.08238652  0.05447290  0.46407957    -0.06700
C45         C  0.45819487  0.45148232  0.41651996    -0.06300
N46         N  0.43967933  0.03628732  0.03298235    -0.25800
N47         N  0.04031868  0.44867496  0.42031044    -0.46600
H48         H  0.47791540  0.06605205  0.39967362     0.07100
C49         C  0.03772014  0.05315246  0.08242423    -0.06700
Cl50       Cl  0.99824041  0.00200643  0.99972466    -0.49700
C51         C  0.06294375  0.42767754  0.06844490     0.42800
H52         H  0.39897740  0.06519617  0.02369731     0.07000
N53         N  0.07819581  0.05146280  0.04630209    -0.46400
C54         C  0.14887687  0.15362221  0.35697066     0.86700
C55         C  0.18570290  0.15305654  0.36221417    -0.53500
C56         C  0.20206666  0.17214456  0.34245149     0.09600
C57         C  0.18078645  0.18995059  0.31914756     0.20600
C58         C  0.13934580  0.18707361  0.36024840    -0.54300
C59         C  0.15617878  0.20588619  0.34057711     0.09700
C60         C  0.14510417  0.14658940  0.32090811    -0.53800
C61         C  0.16156393  0.16576635  0.30134357     0.10300
H62         H  0.19821275  0.13836754  0.37890656     0.14800
H63         H  0.19433280  0.20543326  0.30309626     0.00500
H64         H  0.12126347  0.19513082  0.37695214     0.15100
H65         H  0.13076380  0.12811384  0.31165009     0.14900
C66         C  0.13850079  0.35017960  0.34825995     0.86700
C67         C  0.13470891  0.35342330  0.31148153    -0.53500
C68         C  0.15416902  0.33453779  0.29453891     0.09600
C69         C  0.17571528  0.31427421  0.31515981     0.20600
C70         C  0.13306289  0.31638535  0.35500384    -0.54300
C71         C  0.15247818  0.29781535  0.33761057     0.09700
C72         C  0.17475534  0.35513866  0.35395255    -0.53800
C73         C  0.19399221  0.33620961  0.33678611     0.10300
H74         H  0.11903874  0.36931805  0.29936148     0.14800
H75         H  0.19151381  0.29897328  0.30108622     0.00500
H76         H  0.11541019  0.30797192  0.37196358     0.15100
H77         H  0.18431676  0.37210548  0.37008198     0.14900
C78         C  0.14226446  0.34325798  0.14147668     0.86700
C79         C  0.17886100  0.34739992  0.13666939    -0.53500
C80         C  0.19711771  0.32952061  0.15612646     0.09600
C81         C  0.17784114  0.30928717  0.17873820     0.20600
C82         C  0.13652143  0.30913446  0.13732738    -0.54300
C83         C  0.15527108  0.29156980  0.15679127     0.09700
C84         C  0.13753162  0.34910319  0.17765280    -0.53800
C85         C  0.15593359  0.33114046  0.19684427     0.10300
H86         H  0.18975186  0.36369309  0.12060133     0.14800
H87         H  0.19295428  0.29486228  0.19460900     0.00500
H88         H  0.11935664  0.29980261  0.12045689     0.15100
H89         H  0.12133213  0.36605235  0.18730448     0.14900
C90         C  0.14919830  0.14658027  0.14872364     0.86700
C91         C  0.14443614  0.14233250  0.18519746    -0.53500
C92         C  0.16171619  0.16207330  0.20336708     0.09600
C93         C  0.18239225  0.18404665  0.18388672     0.20600
C94         C  0.14148279  0.18007240  0.14241734    -0.54300
C95         C  0.15887305  0.19948890  0.16073599     0.09700
C96         C  0.18601804  0.14395561  0.14430097    -0.53800
C97         C  0.20304263  0.16366489  0.16259870     0.10300
H98         H  0.12887613  0.12531173  0.19566097     0.14800
H99         H  0.19650131  0.20001435  0.19879475     0.00500
H100        H  0.12392758  0.18769736  0.12487043     0.15100
H101        H  0.19810499  0.12765169  0.12919322     0.14900
C102        C  0.35465652  0.16069320  0.35710512     0.86700
C103        C  0.35955241  0.15543251  0.32083817    -0.53500
C104        C  0.34159399  0.17405033  0.30185665     0.09600
C105        C  0.32000936  0.19598171  0.32034030     0.20600
C106        C  0.36108302  0.19460084  0.36200313    -0.54300
C107        C  0.34281878  0.21284288  0.34281689     0.09700
C108        C  0.31793949  0.15718034  0.36160139    -0.53800
C109        C  0.30014771  0.17577105  0.34250063     0.10300
H110        H  0.37553906  0.13838884  0.31102177     0.14800
H111        H  0.30528100  0.21099702  0.30473071     0.00500
H112        H  0.37819425  0.20331003  0.37930494     0.15100
H113        H  0.30652899  0.14091854  0.37731622     0.14900
C114        C  0.35644852  0.15393290  0.15010409     0.86700
C115        C  0.32017924  0.14822152  0.14560048    -0.53500
C116        C  0.30110008  0.16718591  0.16288948     0.09600
C117        C  0.31951845  0.18994358  0.18341775     0.20600
C118        C  0.36099087  0.18767185  0.14234947    -0.54300
C119        C  0.34175180  0.20631542  0.15988018     0.09700
C120        C  0.36133038  0.15159284  0.18686345    -0.53800
C121        C  0.34203446  0.17052831  0.20393700     0.10300
H122        H  0.31048891  0.13074384  0.13017705     0.14800
H123        H  0.30381544  0.20527022  0.19756409     0.00500
H124        H  0.37809057  0.19600508  0.12479106     0.15100
H125        H  0.37751732  0.13612774  0.19892753     0.14900
C126        C  0.34875584  0.35105064  0.14462034     0.86700
C127        C  0.35303748  0.35637732  0.18098264    -0.53500
C128        C  0.33578401  0.33702330  0.19968792     0.09600
C129        C  0.31559658  0.31427955  0.18082771     0.20600
C130        C  0.35690158  0.31746412  0.13961405    -0.54300
C131        C  0.33945303  0.29841431  0.15850279     0.09700
C132        C  0.31199613  0.35322123  0.13976372    -0.53800
C133        C  0.29499545  0.33380323  0.15850661     0.10300
H134        H  0.36772807  0.37419038  0.19109556     0.14800
H135        H  0.30145637  0.29862874  0.19616541     0.00500
H136        H  0.37456490  0.30952438  0.12241210     0.15100
H137        H  0.30010840  0.36901931  0.12373573     0.14900
C138        C  0.34570691  0.35792587  0.35178608     0.86700
C139        C  0.30890231  0.35973223  0.35673030    -0.53500
C140        C  0.29215961  0.33936182  0.33892198     0.09600
C141        C  0.31314764  0.31914363  0.31770734     0.20600
C142        C  0.35446144  0.32474709  0.35855209    -0.54300
C143        C  0.33740895  0.30465765  0.34077837     0.09700
C144        C  0.34984439  0.36174567  0.31521140    -0.53800
C145        C  0.33304484  0.34125745  0.29761201     0.10300
H146        H  0.29667749  0.37606037  0.37171730     0.14800
H147        H  0.29936201  0.30259892  0.30321592     0.00500
H148        H  0.37259300  0.31782628  0.37584094     0.15100
H149        H  0.36489780  0.37888905  0.30423947     0.14900
C150        C  0.33532052  0.33878762  0.23421646    -0.13100
C151        C  0.33436235  0.34014378  0.26307933    -0.14600
C152        C  0.34270604  0.23876791  0.15736397    -0.13100
C153        C  0.34218826  0.26598876  0.15706401    -0.14600
C154        C  0.34225020  0.17268836  0.26734391    -0.13100
C155        C  0.34233159  0.17165810  0.23846891    -0.14600
C156        C  0.34369298  0.24532584  0.34397122    -0.13100
C157        C  0.34182648  0.27247250  0.34325539    -0.14600
C158        C  0.23762763  0.16466883  0.16238846    -0.13100
C159        C  0.26654901  0.16563768  0.16236894    -0.14600
C160        C  0.15454137  0.25902261  0.15681101    -0.13100
C161        C  0.15581243  0.23184396  0.15819382    -0.14600
C162        C  0.23163967  0.33084833  0.15667571    -0.13100
C163        C  0.26050433  0.33214277  0.15755136    -0.14600
C164        C  0.15463582  0.33389590  0.26007163    -0.13100
C165        C  0.15515634  0.33288318  0.23124980    -0.14600
C166        C  0.22858652  0.33716807  0.33833580    -0.13100
C167        C  0.25753703  0.33800899  0.33894968    -0.14600
C168        C  0.16102962  0.16341851  0.26685056    -0.13100
C169        C  0.16095356  0.16224550  0.23795504    -0.14600
C170        C  0.23660563  0.17433268  0.34257830    -0.13100
C171        C  0.26553061  0.17544881  0.34248758    -0.14600
C172        C  0.15236482  0.23821191  0.34070946    -0.13100
C173        C  0.15138923  0.26539201  0.33991092    -0.14600
C174        C  0.07870458  0.10608504  0.38849733    -0.13100
C175        C  0.09147896  0.09307636  0.41646248     0.09000
C176        C  0.12242764  0.10147300  0.42629323    -0.13100
C177        C  0.14085011  0.12126005  0.40773353    -0.13100
C178        C  0.12887937  0.13305513  0.37863644     0.09000
C179        C  0.09696146  0.12618957  0.37013870    -0.13100
H180        H  0.05465110  0.10052672  0.38062724     0.13000
H181        H  0.13274551  0.09245924  0.44813066     0.13000
H182        H  0.16426611  0.12733268  0.41669336     0.13000
H183        H  0.08629874  0.13588365  0.34876997     0.13000
C184        C  0.06941438  0.38902279  0.11223648    -0.13100
C185        C  0.08156636  0.40368899  0.08497462     0.09000
C186        C  0.11241773  0.39601534  0.07411805    -0.13100
C187        C  0.13159470  0.37572020  0.09136022    -0.13100
C188        C  0.12053988  0.36276346  0.12020131     0.09000
C189        C  0.08847377  0.36842006  0.12930115    -0.13100
H190        H  0.04538711  0.39378129  0.12074770     0.13000
H191        H  0.12210950  0.40625039  0.05260372     0.13000
H192        H  0.15505428  0.37044508  0.08185157     0.13000
H193        H  0.07841502  0.35766913  0.15034297     0.13000
C194        C  0.38759631  0.11172101  0.07632541    -0.13100
C195        C  0.41303180  0.09450527  0.08886115     0.09000
C196        C  0.42148385  0.09808881  0.12115138    -0.13100
C197        C  0.40393144  0.11738000  0.14099649    -0.13100
C198        C  0.37733195  0.13366942  0.12901938     0.09000
C199        C  0.37024311  0.13132882  0.09607762    -0.13100
H200        H  0.38088218  0.10990663  0.05133995     0.13000
H201        H  0.44138175  0.08549770  0.13133251     0.13000
H202        H  0.41182001  0.11937180  0.16549594     0.13000
H203        H  0.35065216  0.14423333  0.08574724     0.13000
C204        C  0.07579264  0.10379451  0.11720510    -0.13100
C205        C  0.08838084  0.08785522  0.09101580     0.09000
C206        C  0.12070210  0.09198057  0.08276591    -0.13100
C207        C  0.14044368  0.11071076  0.10102447    -0.13100
C208        C  0.12839208  0.12580022  0.12823732     0.09000
C209        C  0.09546405  0.12281048  0.13532219    -0.13100
H210        H  0.05076662  0.10159218  0.12377242     0.13000
H211        H  0.13092425  0.08042863  0.06230490     0.13000
H212        H  0.16486344  0.11352369  0.09302078     0.13000
H213        H  0.08498332  0.13499552  0.15522468     0.13000
C214        C  0.37490134  0.41290875  0.41695335    -0.13100
C215        C  0.40698602  0.41739272  0.40791029     0.09000
C216        C  0.41896041  0.40210014  0.38105125    -0.13100
C217        C  0.39905883  0.38303270  0.36332803    -0.13100
C218        C  0.36643688  0.37939993  0.37142625     0.09000
C219        C  0.35486430  0.39416452  0.39901156    -0.13100
H220        H  0.36514963  0.42405009  0.43789249     0.13000
H221        H  0.44374762  0.40467513  0.37378069     0.13000
H222        H  0.40919908  0.37112963  0.34306395     0.13000
H223        H  0.33067575  0.39093124  0.40756286     0.13000
C224        C  0.42726539  0.11512182  0.38732959    -0.13100
C225        C  0.41459010  0.09973953  0.41391120     0.09000
C226        C  0.38317936  0.10643151  0.42378201    -0.13100
C227        C  0.36412187  0.12665362  0.40634970    -0.13100
C228        C  0.37584891  0.14054613  0.37825224     0.09000
C229        C  0.40827719  0.13562472  0.37002813    -0.13100
H230        H  0.45170016  0.11107528  0.37959838     0.13000
H231        H  0.37301315  0.09556429  0.44472801     0.13000
H232        H  0.34032289  0.13125649  0.41533079     0.13000
H233        H  0.41872202  0.14699213  0.34953883     0.13000
C234        C  0.10648527  0.39088679  0.42248023    -0.13100
C235        C  0.08201435  0.40920851  0.40987209     0.07900
C236        C  0.07422152  0.40675451  0.37726970    -0.13100
C237        C  0.09171432  0.38759123  0.35721463    -0.13100
C238        C  0.11748269  0.37025939  0.36935427     0.09000
C239        C  0.12369418  0.37137321  0.40253943    -0.13100
H240        H  0.11258545  0.39180476  0.44768275     0.13000
H241        H  0.05502121  0.42022457  0.36701528     0.13000
H242        H  0.08451868  0.38658716  0.33242855     0.13000
H243        H  0.14258414  0.35761790  0.41293739     0.13000
C244        C  0.37530431  0.40165809  0.07428275    -0.13100
C245        C  0.40555713  0.41156122  0.08456327     0.09000
C246        C  0.41800008  0.40020961  0.11349830    -0.13100
C247        C  0.40001723  0.38029009  0.13235279    -0.13100
C248        C  0.36872945  0.37185456  0.12322276     0.09000
C249        C  0.35728740  0.38182828  0.09315641    -0.13100
H250        H  0.36532567  0.40934002  0.05172921     0.13000
H251        H  0.44160095  0.40689583  0.12172240     0.13000
H252        H  0.41055176  0.37178032  0.15432402     0.13000
H253        H  0.33448549  0.37428978  0.08381619     0.13000
C254        C  0.42382811  0.43411115  0.56572739     0.42700
N255        N  0.45787703  0.46895328  0.55481468     0.01600
C256        C  0.46295435  0.06128462  0.92023958    -0.06300
H257        H  0.47268150  0.44700487  0.89555389     0.07000
C258        C  0.07645288  0.44427668  0.96059416    -0.06700
Co259      Co  0.43955081  0.00451030  0.99641233     0.74200
N260        N  0.46435263  0.47258743  0.93865953    -0.25900
Co261      Co  0.00157781  0.00393225  0.94107681     0.74100
C262        C  0.06552129  0.43175735  0.93008717     0.42800
N263        N  0.05286642  0.46544833  0.53757680     0.01200
N264        N  0.03560333  0.46940663  0.94261170     0.01300
N265        N  0.42258372  0.06045006  0.95647516    -0.46700
H266        H  0.39322104  0.44614719  0.52124680     0.07000
N267        N  0.44079367  0.47271425  0.95980475     0.01600
N268        N  0.03878535  0.03523315  0.94482476     0.01300
C269        C  0.07294588  0.07023953  0.93466999     0.42900
N270        N  0.02931623  0.46582189  0.55872304    -0.25300
C271        C  0.41939607  0.05924506  0.53847193    -0.06200
N272        N  0.45096030  0.44762330  0.57600070    -0.46400
N273        N  0.04581245  0.05689869  0.92402091    -0.46600
C274        C  0.42998440  0.07200562  0.56893412     0.42700
N275        N  0.44352533  0.03844587  0.96181657     0.01500
N276        N  0.03199328  0.03163128  0.56063696    -0.25300
N277        N  0.43671126  0.47063331  0.53130967    -0.25800
N278        N  0.05574458  0.03129056  0.53971328     0.01200
H279        H  0.02292279  0.05793313  0.60309663     0.07100
H280        H  0.10324331  0.05761712  0.97913920     0.07100
N281        N  0.46721261  0.03826953  0.94082064    -0.25900
N282        N  0.05657429  0.46753972  0.96627058    -0.25500
N283        N  0.46062825  0.03474090  0.55667490     0.01600
C284        C  0.42745830  0.43842181  0.92618753     0.43000
C285        C  0.03352541  0.44272398  0.57923671    -0.06700
N286        N  0.05988836  0.03325076  0.96835714    -0.25500
H287        H  0.09680352  0.43791380  0.97527255     0.07100
N288        N  0.41808511  0.45287352  0.95306636    -0.46700
H289        H  0.01857063  0.43794683  0.59980465     0.07100
C290        C  0.06838754  0.06632405  0.57281576     0.42800
C291        C  0.41423664  0.44943582  0.53604991    -0.06200
Co292      Co  0.49489792  0.50026393  0.55836651     0.73800
N293        N  0.07362519  0.44324856  0.54270680    -0.46400
C294        C  0.43332517  0.07606250  0.93077638     0.43100
N295        N  0.45546327  0.05548269  0.57888850    -0.46400
Co296      Co  0.05693470  0.49934389  0.50304319     0.73900
C297        C  0.08238656  0.05447290  0.96407958    -0.06700
C298        C  0.45819481  0.45148230  0.91651998    -0.06300
N299        N  0.43967935  0.03628731  0.53298230    -0.25800
N300        N  0.04031867  0.44867494  0.92031044    -0.46600
H301        H  0.47791536  0.06605207  0.89967366     0.07100
C302        C  0.03772016  0.05315249  0.58242414    -0.06700
Cl303      Cl  0.99824040  0.00200643  0.49972462    -0.49700
C304        C  0.06294374  0.42767758  0.56844482     0.42800
H305        H  0.39897739  0.06519611  0.52369727     0.07000
N306        N  0.07819584  0.05146279  0.54630200    -0.46400
C307        C  0.14887692  0.15362216  0.85697059     0.86700
C308        C  0.18570296  0.15305647  0.86221408    -0.53500
C309        C  0.20206670  0.17214450  0.84245140     0.09600
C310        C  0.18078649  0.18995056  0.81914750     0.20600
C311        C  0.13934587  0.18707356  0.86024837    -0.54300
C312        C  0.15617884  0.20588615  0.84057708     0.09700
C313        C  0.14510420  0.14658937  0.82090803    -0.53800
C314        C  0.16156395  0.16576634  0.80134351     0.10300
H315        H  0.19821281  0.13836745  0.87890645     0.14800
H316        H  0.19433284  0.20543324  0.80309621     0.00500
H317        H  0.12126355  0.19513076  0.87695211     0.15100
H318        H  0.13076381  0.12811381  0.81164999     0.14900
C319        C  0.13850068  0.35017957  0.84825984     0.86700
C320        C  0.13470878  0.35342325  0.81148143    -0.53500
C321        C  0.15416890  0.33453776  0.79453880     0.09600
C322        C  0.17571520  0.31427421  0.81515968     0.20600
C323        C  0.13306283  0.31638530  0.85500374    -0.54300
C324        C  0.15247813  0.29781532  0.83761045     0.09700
C325        C  0.17475523  0.35513867  0.85395243    -0.53800
C326        C  0.19399211  0.33620963  0.83678597     0.10300
H327        H  0.11903858  0.36931796  0.79936139     0.14800
H328        H  0.19151374  0.29897330  0.80108609     0.00500
H329        H  0.11541016  0.30797186  0.87196349     0.15100
H330        H  0.18431664  0.37210550  0.87008186     0.14900
C331        C  0.14226445  0.34325800  0.64147656     0.86700
C332        C  0.17886100  0.34739999  0.63666934    -0.53500
C333        C  0.19711768  0.32952067  0.65612643     0.09600
C334        C  0.17784109  0.30928718  0.67873811     0.20600
C335        C  0.13652147  0.30913448  0.63732721    -0.54300
C336        C  0.15527110  0.29156982  0.65679111     0.09700
C337        C  0.13753153  0.34910317  0.67765267    -0.53800
C338        C  0.15593348  0.33114043  0.69684416     0.10300
H339        H  0.18975188  0.36369318  0.62060131     0.14800
H340        H  0.19295421  0.29486230  0.69460892     0.00500
H341        H  0.11935673  0.29980264  0.62045668     0.15100
H342        H  0.12133201  0.36605231  0.68730434     0.14900
C343        C  0.14919833  0.14658027  0.64872357     0.86700
C344        C  0.14443614  0.14233253  0.68519739    -0.53500
C345        C  0.16171618  0.16207335  0.70336700     0.09600
C346        C  0.18239226  0.18404668  0.68388662     0.20600
C347        C  0.14148283  0.18007239  0.64241723    -0.54300
C348        C  0.15887308  0.19948891  0.66073586     0.09700
C349        C  0.18601806  0.14395560  0.64430093    -0.53800
C350        C  0.20304266  0.16366489  0.66259864     0.10300
H351        H  0.12887613  0.12531177  0.69566091     0.14800
H352        H  0.19650131  0.20001439  0.69879465     0.00500
H353        H  0.12392763  0.18769734  0.62487029     0.15100
H354        H  0.19810501  0.12765168  0.62919321     0.14900
C355        C  0.35465656  0.16069323  0.85710506     0.86700
C356        C  0.35955247  0.15543255  0.82083811    -0.53500
C357        C  0.34159404  0.17405036  0.80185658     0.09600
C358        C  0.32000938  0.19598171  0.82034023     0.20600
C359        C  0.36108301  0.19460088  0.86200308    -0.54300
C360        C  0.34281877  0.21284290  0.84281684     0.09700
C361        C  0.31793954  0.15718032  0.86160133    -0.53800
C362        C  0.30014775  0.17577102  0.84250055     0.10300
H363        H  0.37553913  0.13838889  0.81102171     0.14800
H364        H  0.30528101  0.21099701  0.80473064     0.00500
H365        H  0.37819423  0.20331008  0.87930490     0.15100
H366        H  0.30652904  0.14091849  0.87731617     0.14900
C367        C  0.35644857  0.15393300  0.65010400     0.86700
C368        C  0.32017929  0.14822159  0.64560041    -0.53500
C369        C  0.30110012  0.16718597  0.66288942     0.09600
C370        C  0.31951847  0.18994365  0.68341768     0.20600
C371        C  0.36099089  0.18767196  0.64234938    -0.54300
C372        C  0.34175181  0.20631551  0.65988011     0.09700
C373        C  0.36133045  0.15159293  0.68686336    -0.53800
C374        C  0.34203452  0.17052839  0.70393692     0.10300
H375        H  0.31048897  0.13074392  0.63017697     0.14800
H376        H  0.30381547  0.20527026  0.69756404     0.00500
H377        H  0.37809059  0.19600521  0.62479096     0.15100
H378        H  0.37751741  0.13612784  0.69892743     0.14900
C379        C  0.34875578  0.35105073  0.64462032     0.86700
C380        C  0.35303745  0.35637743  0.68098262    -0.53500
C381        C  0.33578400  0.33702341  0.69968793     0.09600
C382        C  0.31559657  0.31427964  0.68082773     0.20600
C383        C  0.35690155  0.31746422  0.63961405    -0.54300
C384        C  0.33945302  0.29841440  0.65850281     0.09700
C385        C  0.31199607  0.35322129  0.63976373    -0.53800
C386        C  0.29499541  0.33380329  0.65850664     0.10300
H387        H  0.36772803  0.37419050  0.69109551     0.14800
H388        H  0.30145638  0.29862883  0.69616546     0.00500
H389        H  0.37456484  0.30952448  0.62241210     0.15100
H390        H  0.30010831  0.36901935  0.62373577     0.14900
C391        C  0.34570679  0.35792590  0.85178613     0.86700
C392        C  0.30890219  0.35973223  0.85673030    -0.53500
C393        C  0.29215951  0.33936184  0.83892193     0.09600
C394        C  0.31314758  0.31914369  0.81770729     0.20600
C395        C  0.35446132  0.32474711  0.85855212    -0.54300
C396        C  0.33740886  0.30465768  0.84077834     0.09700
C397        C  0.34984432  0.36174573  0.81521147    -0.53800
C398        C  0.33304480  0.34125754  0.79761202     0.10300
H399        H  0.29667734  0.37606032  0.87171729     0.14800
H400        H  0.29936197  0.30259899  0.80321584     0.00500
H401        H  0.37259285  0.31782628  0.87584098     0.15100
H402        H  0.36489775  0.37888911  0.80423959     0.14900
C403        C  0.33532052  0.33878775  0.73421647    -0.13100
C404        C  0.33436234  0.34014390  0.76307933    -0.14600
C405        C  0.34270603  0.23876800  0.65736392    -0.13100
C406        C  0.34218823  0.26598885  0.65706400    -0.14600
C407        C  0.34225026  0.17268839  0.76734384    -0.13100
C408        C  0.34233165  0.17165815  0.73846884    -0.14600
C409        C  0.34369292  0.24532586  0.84397117    -0.13100
C410        C  0.34182640  0.27247253  0.84325534    -0.14600
C411        C  0.23762766  0.16466885  0.66238839    -0.13100
C412        C  0.26654904  0.16563772  0.66236887    -0.14600
C413        C  0.15454141  0.25902262  0.65681083    -0.13100
C414        C  0.15581247  0.23184398  0.65819365    -0.14600
C415        C  0.23163964  0.33084838  0.65667573    -0.13100
C416        C  0.26050430  0.33214282  0.65755140    -0.14600
C417        C  0.15463568  0.33389587  0.76007151    -0.13100
C418        C  0.15515619  0.33288315  0.73124969    -0.14600
C419        C  0.22858642  0.33716811  0.83833567    -0.13100
C420        C  0.25753694  0.33800902  0.83894958    -0.14600
C421        C  0.16102962  0.16341853  0.76685048    -0.13100
C422        C  0.16095355  0.16224555  0.73795496    -0.14600
C423        C  0.23660567  0.17433262  0.84257821    -0.13100
C424        C  0.26553065  0.17544875  0.84248749    -0.14600
C425        C  0.15236486  0.23821187  0.84070940    -0.13100
C426        C  0.15138924  0.26539197  0.83991083    -0.14600
C427        C  0.07870466  0.10608497  0.88849728    -0.13100
C428        C  0.09147903  0.09307630  0.91646245     0.09000
C429        C  0.12242772  0.10147293  0.92629318    -0.13100
C430        C  0.14085018  0.12125998  0.90773346    -0.13100
C431        C  0.12887944  0.13305506  0.87863636     0.09000
C432        C  0.09696153  0.12618949  0.87013864    -0.13100
H433        H  0.05465118  0.10052666  0.88062720     0.13000
H434        H  0.13274561  0.09245917  0.94813063     0.13000
H435        H  0.16426615  0.12733260  0.91669326     0.13000
H436        H  0.08629880  0.13588358  0.84876990     0.13000
C437        C  0.06941433  0.38902273  0.61223630    -0.13100
C438        C  0.08156634  0.40368902  0.58497451     0.09000
C439        C  0.11241776  0.39601547  0.57411800    -0.13100
C440        C  0.13159475  0.37572032  0.59136016    -0.13100
C441        C  0.12053988  0.36276348  0.62020118     0.09000
C442        C  0.08847373  0.36841999  0.62930094    -0.13100
H443        H  0.04538699  0.39378116  0.62074749     0.13000
H444        H  0.12210956  0.40625059  0.55260375     0.13000
H445        H  0.15505440  0.37044528  0.58185154     0.13000
H446        H  0.07841497  0.35766899  0.65034269     0.13000
C447        C  0.38759629  0.11172103  0.57632533    -0.13100
C448        C  0.41303179  0.09450530  0.58886107     0.09000
C449        C  0.42148389  0.09808890  0.62115128    -0.13100
C450        C  0.40393151  0.11738013  0.64099639    -0.13100
C451        C  0.37733200  0.13366953  0.62901928     0.09000
C452        C  0.37024312  0.13132888  0.59607753    -0.13100
H453        H  0.38088211  0.10990660  0.55133987     0.13000
H454        H  0.44138179  0.08549781  0.63133239     0.13000
H455        H  0.41182013  0.11937198  0.66549586     0.13000
H456        H  0.35065216  0.14423338  0.58574716     0.13000
C457        C  0.07579269  0.10379448  0.61720503    -0.13100
C458        C  0.08838087  0.08785524  0.59101568     0.09000
C459        C  0.12070212  0.09198063  0.58276577    -0.13100
C460        C  0.14044370  0.11071081  0.60102435    -0.13100
C461        C  0.12839212  0.12580021  0.62823725     0.09000
C462        C  0.09546410  0.12281043  0.63532213    -0.13100
H463        H  0.05076668  0.10159213  0.62377236     0.13000
H464        H  0.13092426  0.08042873  0.56230472     0.13000
H465        H  0.16486344  0.11352377  0.59302066     0.13000
H466        H  0.08498338  0.13499542  0.65522464     0.13000
C467        C  0.37490114  0.41290908  0.91695318    -0.13100
C468        C  0.40698592  0.41739275  0.90791032     0.09000
C469        C  0.41896039  0.40209990  0.88105149    -0.13100
C470        C  0.39905879  0.38303246  0.86332830    -0.13100
C471        C  0.36643676  0.37939994  0.87142632     0.09000
C472        C  0.35486409  0.39416485  0.89901139    -0.13100
H473        H  0.36514935  0.42405066  0.93789214     0.13000
H474        H  0.44374767  0.40467468  0.87378110     0.13000
H475        H  0.40919909  0.37112919  0.84306438     0.13000
H476        H  0.33067547  0.39093186  0.90756253     0.13000
C477        C  0.42726537  0.11512176  0.88732953    -0.13100
C478        C  0.41459010  0.09973958  0.91391121     0.09000
C479        C  0.38317940  0.10643166  0.92378207    -0.13100
C480        C  0.36412193  0.12665377  0.90634973    -0.13100
C481        C  0.37584895  0.14054618  0.87825220     0.09000
C482        C  0.40827719  0.13562466  0.87002804    -0.13100
H483        H  0.45170010  0.11107516  0.87959828     0.13000
H484        H  0.37301321  0.09556452  0.94472812     0.13000
H485        H  0.34032297  0.13125673  0.91533085     0.13000
H486        H  0.41872203  0.14699201  0.84953868     0.13000
C487        C  0.10648517  0.39088667  0.92248016    -0.13100
C488        C  0.08201429  0.40920846  0.90987204     0.07900
C489        C  0.07422146  0.40675451  0.87726965    -0.13100
C490        C  0.09171424  0.38759122  0.85721457    -0.13100
C491        C  0.11748258  0.37025934  0.86935418     0.09000
C492        C  0.12369406  0.37137310  0.90253934    -0.13100
H493        H  0.11258535  0.39180461  0.94768266     0.13000
H494        H  0.05502118  0.42022461  0.86701523     0.13000
H495        H  0.08451863  0.38658721  0.83242851     0.13000
H496        H  0.14258400  0.35761776  0.91293729     0.13000
C497        C  0.37530418  0.40165836  0.57428285    -0.13100
C498        C  0.40555709  0.41156131  0.58456329     0.09000
C499        C  0.41800010  0.40020954  0.61349822    -0.13100
C500        C  0.40001724  0.38029001  0.63235269    -0.13100
C501        C  0.36872939  0.37185465  0.62322275     0.09000
C502        C  0.35728725  0.38182856  0.59315650    -0.13100
H503        H  0.36532546  0.40934042  0.55172939     0.13000
H504        H  0.44160101  0.40689562  0.62172224     0.13000
H505        H  0.41055182  0.37178010  0.65432386     0.13000
H506        H  0.33448528  0.37429020  0.58381632     0.13000
C507        C  0.42382804  0.93411109  0.06572740     0.42700
N508        N  0.45787696  0.96895323  0.05481468     0.01600
C509        C  0.46295447  0.56128460  0.42023956    -0.06300
H510        H  0.47268148  0.94700481  0.39555393     0.07000
C511        C  0.07645280  0.94427674  0.46059415    -0.06700
Co512      Co  0.43955091  0.50451030  0.49641229     0.74200
N513        N  0.46435258  0.97258741  0.43865955    -0.25900
Co514      Co  0.00157788  0.50393226  0.44107677     0.74100
C515        C  0.06552123  0.93175737  0.43008717     0.42800
N516        N  0.05286641  0.96544834  0.03757683     0.01200
N517        N  0.03560321  0.96940663  0.44261167     0.01300
N518        N  0.42258382  0.56045003  0.45647512    -0.46700
H519        H  0.39322093  0.94614717  0.02124686     0.07000
N520        N  0.44079364  0.97271420  0.45980478     0.01600
N521        N  0.03878543  0.53523315  0.44482473     0.01300
C522        C  0.07294590  0.57023959  0.43467000     0.42900
N523        N  0.02931621  0.96582186  0.05872307    -0.25300
C524        C  0.41939617  0.55924508  0.03847194    -0.06200
N525        N  0.45096025  0.94762323  0.07600069    -0.46400
N526        N  0.04581249  0.55689873  0.42402091    -0.46600
C527        C  0.42998449  0.57200562  0.06893413     0.42700
N528        N  0.44352544  0.53844584  0.46181653     0.01500
N529        N  0.03199335  0.53163123  0.06063700    -0.25300
N530        N  0.43671117  0.97063328  0.03130969    -0.25800
N531        N  0.05574466  0.53129049  0.03971334     0.01200
H532        H  0.02292285  0.55793309  0.10309666     0.07100
H533        H  0.10324334  0.55761720  0.47913923     0.07100
N534        N  0.46721273  0.53826951  0.44082062    -0.25900
N535        N  0.05657417  0.96753976  0.46627055    -0.25500
N536        N  0.46062832  0.53474088  0.05667491     0.01600
C537        C  0.42745831  0.93842170  0.42618760     0.43000
C538        C  0.03352546  0.94272397  0.07923675    -0.06700
N539        N  0.05988843  0.53325077  0.46835711    -0.25500
H540        H  0.09680345  0.93791391  0.47527253     0.07100
N541        N  0.41808511  0.95287342  0.45306643    -0.46700
H542        H  0.01857070  0.93794681  0.09980471     0.07100
C543        C  0.06838762  0.56632397  0.07281582     0.42800
C544        C  0.41423655  0.94943579  0.03604994    -0.06200
Co545      Co  0.49489786  0.00026386  0.05836652     0.73800
N546        N  0.07362524  0.94324862  0.04270684    -0.46400
C547        C  0.43332527  0.57606247  0.43077635     0.43100
N548        N  0.45546335  0.55548267  0.07888852    -0.46400
Co549      Co  0.05693464  0.99934389  0.00304322     0.73900
C550        C  0.08238661  0.55447294  0.46407958    -0.06700
C551        C  0.45819480  0.95148224  0.41652003    -0.06300
N552        N  0.43967943  0.53628732  0.03298230    -0.25800
N553        N  0.04031858  0.94867492  0.42031043    -0.46600
H554        H  0.47791547  0.56605206  0.39967366     0.07100
C555        C  0.03772022  0.55315244  0.08242418    -0.06700
Cl556      Cl  0.99824050  0.50200641  0.99972464    -0.49700
C557        C  0.06294382  0.92767764  0.06844487     0.42800
H558        H  0.39897750  0.56519614  0.02369727     0.07000
N559        N  0.07819593  0.55146269  0.04630208    -0.46400
C560        C  0.14887688  0.65362226  0.35697059     0.86700
C561        C  0.18570291  0.65305656  0.36221409    -0.53500
C562        C  0.20206668  0.67214456  0.34245141     0.09600
C563        C  0.18078649  0.68995062  0.31914748     0.20600
C564        C  0.13934585  0.68707368  0.36024834    -0.54300
C565        C  0.15617884  0.70588625  0.34057703     0.09700
C566        C  0.14510416  0.64658945  0.32090804    -0.53800
C567        C  0.16156393  0.66576639  0.30134350     0.10300
H568        H  0.19821276  0.63836755  0.37890647     0.14800
H569        H  0.19433286  0.70543327  0.30309618     0.00500
H570        H  0.12126353  0.69513090  0.37695207     0.15100
H571        H  0.13076376  0.62811390  0.31165002     0.14900
C572        C  0.13850079  0.85017967  0.34825985     0.86700
C573        C  0.13470887  0.85342340  0.31148145    -0.53500
C574        C  0.15416896  0.83453791  0.29453878     0.09600
C575        C  0.17571525  0.81427432  0.31515962     0.20600
C576        C  0.13306292  0.81638541  0.35500372    -0.54300
C577        C  0.15247819  0.79781542  0.33761040     0.09700
C578        C  0.17475535  0.85513874  0.35395241    -0.53800
C579        C  0.19399220  0.83620970  0.33678592     0.10300
H580        H  0.11903871  0.86931817  0.29936145     0.14800
H581        H  0.19151376  0.79897341  0.30108599     0.00500
H582        H  0.11541027  0.80797197  0.37196348     0.15100
H583        H  0.18431680  0.87210554  0.37008185     0.14900
C584        C  0.14226453  0.84325799  0.14147651     0.86700
C585        C  0.17886110  0.84739984  0.13666925    -0.53500
C586        C  0.19711772  0.82952052  0.15612640     0.09600
C587        C  0.17784106  0.80928716  0.17873815     0.20600
C588        C  0.13652142  0.80913448  0.13732727    -0.54300
C589        C  0.15527099  0.79156981  0.15679121     0.09700
C590        C  0.13753166  0.84910329  0.17765260    -0.53800
C591        C  0.15593355  0.83114054  0.19684414     0.10300
H592        H  0.18975204  0.86369296  0.12060118     0.14800
H593        H  0.19295414  0.79486227  0.19460900     0.00500
H594        H  0.11935664  0.79980264  0.12045676     0.15100
H595        H  0.12133219  0.86605250  0.18730422     0.14900
C596        C  0.14919836  0.64658023  0.14872357     0.86700
C597        C  0.14443616  0.64233251  0.18519739    -0.53500
C598        C  0.16171617  0.66207335  0.20336700     0.09600
C599        C  0.18239223  0.68404669  0.18388663     0.20600
C600        C  0.14148282  0.68007236  0.14241721    -0.54300
C601        C  0.15887304  0.69948890  0.16073586     0.09700
C602        C  0.18601810  0.64395560  0.14430095    -0.53800
C603        C  0.20304265  0.66366492  0.16259866     0.10300
H604        H  0.12887615  0.62531174  0.19566090     0.14800
H605        H  0.19650126  0.70001442  0.19879465     0.00500
H606        H  0.12392760  0.68769728  0.12487026     0.15100
H607        H  0.19810510  0.62765169  0.12919326     0.14900
C608        C  0.35465653  0.66069306  0.35710501     0.86700
C609        C  0.35955239  0.65543238  0.32083806    -0.53500
C610        C  0.34159397  0.67405023  0.30185657     0.09600
C611        C  0.32000936  0.69598162  0.32034025     0.20600
C612        C  0.36108305  0.69460069  0.36200304    -0.54300
C613        C  0.34281881  0.71284275  0.34281684     0.09700
C614        C  0.31793950  0.65718021  0.36160133    -0.53800
C615        C  0.30014773  0.67577094  0.34250058     0.10300
H616        H  0.37553901  0.63838871  0.31102163     0.14800
H617        H  0.30528101  0.71099694  0.30473068     0.00500
H618        H  0.37819429  0.70330986  0.37930485     0.15100
H619        H  0.30652900  0.64091840  0.37731617     0.14900
C620        C  0.35644854  0.65393288  0.15010401     0.86700
C621        C  0.32017926  0.64822148  0.14560043    -0.53500
C622        C  0.30110010  0.66718589  0.16288943     0.09600
C623        C  0.31951847  0.68994358  0.18341766     0.20600
C624        C  0.36099088  0.68767183  0.14234936    -0.54300
C625        C  0.34175180  0.70631540  0.15988006     0.09700
C626        C  0.36133042  0.65159285  0.18686338    -0.53800
C627        C  0.34203450  0.67052833  0.20393692     0.10300
H628        H  0.31048892  0.63074380  0.13017701     0.14800
H629        H  0.30381548  0.70527022  0.19756400     0.00500
H630        H  0.37809058  0.69600506  0.12479092     0.15100
H631        H  0.37751736  0.63612777  0.19892746     0.14900
C632        C  0.34875583  0.85105059  0.14462038     0.86700
C633        C  0.35303751  0.85637724  0.18098268    -0.53500
C634        C  0.33578406  0.83702320  0.19968797     0.09600
C635        C  0.31559661  0.81427947  0.18082774     0.20600
C636        C  0.35690158  0.81746409  0.13961404    -0.54300
C637        C  0.33945305  0.79841426  0.15850277     0.09700
C638        C  0.31199613  0.85322117  0.13976379    -0.53800
C639        C  0.29499546  0.83380316  0.15850667     0.10300
H640        H  0.36772808  0.87419029  0.19109561     0.14800
H641        H  0.30145642  0.79862863  0.19616543     0.00500
H642        H  0.37456488  0.80952436  0.12241206     0.15100
H643        H  0.30010840  0.86901924  0.12373582     0.14900
C644        C  0.34570690  0.85792575  0.35178616     0.86700
C645        C  0.30890229  0.85973211  0.35673033    -0.53500
C646        C  0.29215961  0.83936172  0.33892196     0.09600
C647        C  0.31314767  0.81914352  0.31770736     0.20600
C648        C  0.35446140  0.82474695  0.35855218    -0.54300
C649        C  0.33740894  0.80465753  0.34077842     0.09700
C650        C  0.34984444  0.86174555  0.31521149    -0.53800
C651        C  0.33304491  0.84125735  0.29761207     0.10300
H652        H  0.29667746  0.87606025  0.37171729     0.14800
H653        H  0.29936205  0.80259882  0.30321591     0.00500
H654        H  0.37259294  0.81782613  0.37584105     0.15100
H655        H  0.36489788  0.87888893  0.30423959     0.14900
C656        C  0.33532059  0.83878751  0.23421651    -0.13100
C657        C  0.33436243  0.84014368  0.26307938    -0.14600
C658        C  0.34270604  0.73876787  0.15736384    -0.13100
C659        C  0.34218826  0.76598872  0.15706392    -0.14600
C660        C  0.34225018  0.67268831  0.26734383    -0.13100
C661        C  0.34233160  0.67165810  0.23846883    -0.14600
C662        C  0.34369301  0.74532571  0.34397121    -0.13100
C663        C  0.34182649  0.77247237  0.34325540    -0.14600
C664        C  0.23762765  0.66466886  0.16238845    -0.13100
C665        C  0.26654903  0.66563768  0.16236891    -0.14600
C666        C  0.15454126  0.75902261  0.15681093    -0.13100
C667        C  0.15581234  0.73184396  0.15819370    -0.14600
C668        C  0.23163968  0.83084819  0.15667572    -0.13100
C669        C  0.26050435  0.83214265  0.15755140    -0.14600
C670        C  0.15463573  0.83389607  0.26007149    -0.13100
C671        C  0.15515625  0.83288334  0.23124967    -0.14600
C672        C  0.22858651  0.83716811  0.33833563    -0.13100
C673        C  0.25753703  0.83800895  0.33894956    -0.14600
C674        C  0.16102960  0.66341856  0.26685048    -0.13100
C675        C  0.16095353  0.66224556  0.23795496    -0.14600
C676        C  0.23660565  0.67433265  0.34257824    -0.13100
C677        C  0.26553063  0.67544874  0.34248754    -0.14600
C678        C  0.15236489  0.73821197  0.34070934    -0.13100
C679        C  0.15138929  0.76539207  0.33991076    -0.14600
C680        C  0.07870463  0.60608508  0.38849732    -0.13100
C681        C  0.09147902  0.59307640  0.41646247     0.09000
C682        C  0.12242770  0.60147304  0.42629319    -0.13100
C683        C  0.14085015  0.62126011  0.40773348    -0.13100
C684        C  0.12887939  0.63305519  0.37863639     0.09000
C685        C  0.09696148  0.62618961  0.37013867    -0.13100
H686        H  0.05465116  0.60052676  0.38062726     0.13000
H687        H  0.13274560  0.59245929  0.44813061     0.13000
H688        H  0.16426614  0.62733274  0.41669329     0.13000
H689        H  0.08629874  0.63588370  0.34876994     0.13000
C690        C  0.06941442  0.88902267  0.11223623    -0.13100
C691        C  0.08156647  0.90368909  0.08497453     0.09000
C692        C  0.11241793  0.89601564  0.07411806    -0.13100
C693        C  0.13159491  0.87572047  0.09136019    -0.13100
C694        C  0.12053999  0.86276349  0.12020112     0.09000
C695        C  0.08847381  0.86841990  0.12930083    -0.13100
H696        H  0.04538707  0.89378103  0.12074737     0.13000
H697        H  0.12210977  0.90625088  0.05260386     0.13000
H698        H  0.15505458  0.87044552  0.08185160     0.13000
H699        H  0.07841502  0.85766880  0.15034254     0.13000
C700        C  0.38759636  0.61172100  0.07632535    -0.13100
C701        C  0.41303185  0.59450527  0.08886109     0.09000
C702        C  0.42148390  0.59808881  0.12115132    -0.13100
C703        C  0.40393146  0.61737999  0.14099643    -0.13100
C704        C  0.37733197  0.63366940  0.12901931     0.09000
C705        C  0.37024314  0.63132881  0.09607755    -0.13100
H706        H  0.38088224  0.60990662  0.05133990     0.13000
H707        H  0.44138179  0.58549771  0.13133246     0.13000
H708        H  0.41182002  0.61937179  0.16549586     0.13000
H709        H  0.35065219  0.64423331  0.08574716     0.13000
C710        C  0.07579271  0.60379457  0.11720493    -0.13100
C711        C  0.08838096  0.58785512  0.09101576     0.09000
C712        C  0.12070228  0.59198028  0.08276603    -0.13100
C713        C  0.14044386  0.61071047  0.10102458    -0.13100
C714        C  0.12839218  0.62580014  0.12823727     0.09000
C715        C  0.09546411  0.62281054  0.13532201    -0.13100
H716        H  0.05076663  0.60159237  0.12377213     0.13000
H717        H  0.13092448  0.58042820  0.06230514     0.13000
H718        H  0.16486368  0.61352324  0.09302100     0.13000
H719        H  0.08498335  0.63499570  0.15522438     0.13000
C720        C  0.37490124  0.91290875  0.41695337    -0.13100
C721        C  0.40698596  0.91739260  0.40791041     0.09000
C722        C  0.41896040  0.90209990  0.38105148    -0.13100
C723        C  0.39905883  0.88303246  0.36332826    -0.13100
C724        C  0.36643684  0.87939979  0.37142637     0.09000
C725        C  0.35486420  0.89416451  0.39901158    -0.13100
H726        H  0.36514949  0.92405019  0.43789242     0.13000
H727        H  0.44374764  0.90467480  0.37378100     0.13000
H728        H  0.40919912  0.87112930  0.34306426     0.13000
H729        H  0.33067561  0.89093135  0.40756280     0.13000
C730        C  0.42726540  0.61512166  0.38732945    -0.13100
C731        C  0.41459017  0.59973949  0.41391115     0.09000
C732        C  0.38317944  0.60643151  0.42378200    -0.13100
C733        C  0.36412193  0.62665357  0.40634965    -0.13100
C734        C  0.37584892  0.64054598  0.37825212     0.09000
C735        C  0.40827717  0.63562451  0.37002795    -0.13100
H736        H  0.45170015  0.61107509  0.37959819     0.13000
H737        H  0.37301328  0.59556438  0.44472807     0.13000
H738        H  0.34032297  0.63125649  0.41533077     0.13000
H739        H  0.41872197  0.64699185  0.34953859     0.13000
C740        C  0.10648535  0.89088689  0.42248016    -0.13100
C741        C  0.08201431  0.90920850  0.40987206     0.07900
C742        C  0.07422138  0.90675440  0.37726970    -0.13100
C743        C  0.09171420  0.88759114  0.35721463    -0.13100
C744        C  0.11748270  0.87025944  0.36935421     0.09000
C745        C  0.12369429  0.87137335  0.40253935    -0.13100
H746        H  0.11258562  0.89180494  0.44768266     0.13000
H747        H  0.05502097  0.92022434  0.36701532     0.13000
H748        H  0.08451847  0.88658697  0.33242859     0.13000
H749        H  0.14258433  0.85761814  0.41293728     0.13000
C750        C  0.37530428  0.90165803  0.07428277    -0.13100
C751        C  0.40555707  0.91156122  0.08456331     0.09000
C752        C  0.41800002  0.90020965  0.11349836    -0.13100
C753        C  0.40001718  0.88029011  0.13235284    -0.13100
C754        C  0.36872943  0.87185453  0.12322281     0.09000
C755        C  0.35728739  0.88182821  0.09315644    -0.13100
H756        H  0.36532563  0.90933993  0.05172921     0.13000
H757        H  0.44160086  0.90689591  0.12172247     0.13000
H758        H  0.41055172  0.87178037  0.15432408     0.13000
H759        H  0.33448552  0.87428967  0.08381622     0.13000
C760        C  0.42382812  0.93411111  0.56572742     0.42700
N761        N  0.45787702  0.96895326  0.55481470     0.01600
C762        C  0.46295449  0.56128458  0.92023955    -0.06300
H763        H  0.47268139  0.94700492  0.89555389     0.07000
C764        C  0.07645284  0.94427677  0.96059415    -0.06700
Co765      Co  0.43955092  0.50451029  0.99641230     0.74200
N766        N  0.46435251  0.97258747  0.93865954    -0.25900
Co767      Co  0.00157792  0.50393224  0.94107679     0.74100
C768        C  0.06552127  0.93175742  0.93008717     0.42800
N769        N  0.05286637  0.96544832  0.53757678     0.01200
N770        N  0.03560325  0.96940666  0.94261171     0.01300
N771        N  0.42258386  0.56045003  0.95647513    -0.46700
H772        H  0.39322103  0.94614713  0.52124686     0.07000
N773        N  0.44079356  0.97271427  0.95980476     0.01600
N774        N  0.03878548  0.53523311  0.94482478     0.01300
C775        C  0.07294599  0.57023952  0.93467006     0.42900
N776        N  0.02931618  0.96582185  0.55872302    -0.25300
C777        C  0.41939609  0.55924508  0.53847193    -0.06200
N778        N  0.45096030  0.94762328  0.57600072    -0.46400
N779        N  0.04581257  0.55689869  0.92402096    -0.46600
C780        C  0.42998440  0.57200563  0.56893414     0.42700
N781        N  0.44352546  0.53844584  0.96181654     0.01500
N782        N  0.03199334  0.53163132  0.56063697    -0.25300
N783        N  0.43671124  0.97063328  0.53130969    -0.25800
N784        N  0.05574465  0.53129057  0.53971330     0.01200
H785        H  0.02292287  0.55793318  0.60309662     0.07100
H786        H  0.10324342  0.55761708  0.97913926     0.07100
N787        N  0.46721275  0.53826949  0.94082062    -0.25900
N788        N  0.05657422  0.96753979  0.96627058    -0.25500
N789        N  0.46062828  0.53474092  0.55667490     0.01600
C790        C  0.42745820  0.93842183  0.92618753     0.43000
C791        C  0.03352541  0.94272395  0.57923670    -0.06700
N792        N  0.05988848  0.53325070  0.96835716    -0.25500
H793        H  0.09680349  0.93791393  0.97527252     0.07100
N794        N  0.41808501  0.95287353  0.95306637    -0.46700
H795        H  0.01857065  0.93794680  0.59980466     0.07100
C796        C  0.06838763  0.56632406  0.57281579     0.42800
C797        C  0.41423663  0.94943577  0.53604995    -0.06200
Co798      Co  0.49489791  0.00026392  0.55836650     0.73800
N799        N  0.07362518  0.94324858  0.54270677    -0.46400
C800        C  0.43332530  0.57606246  0.93077634     0.43100
N801        N  0.45546329  0.55548270  0.57888852    -0.46400
Co802      Co  0.05693461  0.99934387  0.50304317     0.73900
C803        C  0.08238668  0.55447285  0.96407962    -0.06700
C804        C  0.45819471  0.95148234  0.91651999    -0.06300
N805        N  0.43967938  0.53628734  0.53298230    -0.25800
N806        N  0.04031862  0.94867497  0.92031045    -0.46600
H807        H  0.47791550  0.56605203  0.89967361     0.07100
C808        C  0.03772022  0.55315253  0.58242415    -0.06700
Cl809      Cl  0.99824048  0.50200646  0.49972462    -0.49700
C810        C  0.06294375  0.92767760  0.56844480     0.42800
H811        H  0.39897739  0.56519614  0.52369726     0.07000
N812        N  0.07819593  0.55146278  0.54630205    -0.46400
C813        C  0.14887694  0.65362224  0.85697067     0.86700
C814        C  0.18570298  0.65305654  0.86221413    -0.53500
C815        C  0.20206672  0.67214456  0.84245144     0.09600
C816        C  0.18078650  0.68995062  0.81914755     0.20600
C817        C  0.13934591  0.68707365  0.86024845    -0.54300
C818        C  0.15617887  0.70588624  0.84057713     0.09700
C819        C  0.14510418  0.64658945  0.82090812    -0.53800
C820        C  0.16156393  0.66576640  0.80134357     0.10300
H821        H  0.19821285  0.63836753  0.87890648     0.14800
H822        H  0.19433285  0.70543329  0.80309624     0.00500
H823        H  0.12126359  0.69513086  0.87695220     0.15100
H824        H  0.13076377  0.62811391  0.81165010     0.14900
C825        C  0.13850070  0.85017967  0.84825980     0.86700
C826        C  0.13470878  0.85342336  0.81148139    -0.53500
C827        C  0.15416888  0.83453787  0.79453874     0.09600
C828        C  0.17571518  0.81427430  0.81515961     0.20600
C829        C  0.13306284  0.81638541  0.85500370    -0.54300
C830        C  0.15247812  0.79781541  0.83761041     0.09700
C831        C  0.17475526  0.85513875  0.85395236    -0.53800
C832        C  0.19399212  0.83620970  0.83678589     0.10300
H833        H  0.11903860  0.86931811  0.79936137     0.14800
H834        H  0.19151370  0.79897338  0.80108601     0.00500
H835        H  0.11541018  0.80797198  0.87196348     0.15100
H836        H  0.18431668  0.87210556  0.87008178     0.14900
C837        C  0.14226453  0.84325803  0.64147647     0.86700
C838        C  0.17886108  0.84739991  0.63666922    -0.53500
C839        C  0.19711773  0.82952059  0.65612636     0.09600
C840        C  0.17784109  0.80928721  0.67873809     0.20600
C841        C  0.13652144  0.80913451  0.63732721    -0.54300
C842        C  0.15527104  0.79156985  0.65679115     0.09700
C843        C  0.13753164  0.84910330  0.67765257    -0.53800
C844        C  0.15593355  0.83114056  0.69684410     0.10300
H845        H  0.18975202  0.86369304  0.62060118     0.14800
H846        H  0.19295418  0.79486232  0.69460893     0.00500
H847        H  0.11935667  0.79980267  0.62045670     0.15100
H848        H  0.12133215  0.86605248  0.68730419     0.14900
C849        C  0.14919838  0.64658029  0.64872360     0.86700
C850        C  0.14443617  0.64233255  0.68519742    -0.53500
C851        C  0.16171616  0.66207339  0.70336705     0.09600
C852        C  0.18239222  0.68404675  0.68388670     0.20600
C853        C  0.14148284  0.68007241  0.64241726    -0.54300
C854        C  0.15887303  0.69948895  0.66073592     0.09700
C855        C  0.18601813  0.64395568  0.64430099    -0.53800
C856        C  0.20304267  0.66366499  0.66259872     0.10300
H857        H  0.12887617  0.62531177  0.69566091     0.14800
H858        H  0.19650124  0.70001448  0.69879473     0.00500
H859        H  0.12392764  0.68769733  0.62487030     0.15100
H860        H  0.19810515  0.62765178  0.62919328     0.14900
C861        C  0.35465658  0.66069313  0.85710507     0.86700
C862        C  0.35955245  0.65543247  0.82083812    -0.53500
C863        C  0.34159402  0.67405031  0.80185662     0.09600
C864        C  0.32000939  0.69598167  0.82034031     0.20600
C865        C  0.36108306  0.69460077  0.86200311    -0.54300
C866        C  0.34281881  0.71284282  0.84281691     0.09700
C867        C  0.31793955  0.65718025  0.86160137    -0.53800
C868        C  0.30014776  0.67577097  0.84250062     0.10300
H869        H  0.37553910  0.63838881  0.81102169     0.14800
H870        H  0.30528102  0.71099698  0.80473074     0.00500
H871        H  0.37819429  0.70330995  0.87930493     0.15100
H872        H  0.30652906  0.64091843  0.87731620     0.14900
C873        C  0.35644853  0.65393294  0.65010406     0.86700
C874        C  0.32017925  0.64822155  0.64560051    -0.53500
C875        C  0.30110011  0.66718597  0.66288951     0.09600
C876        C  0.31951850  0.68994365  0.68341773     0.20600
C877        C  0.36099088  0.68767188  0.64234939    -0.54300
C878        C  0.34175183  0.70631547  0.65988011     0.09700
C879        C  0.36133045  0.65159291  0.68686342    -0.53800
C880        C  0.34203454  0.67052839  0.70393697     0.10300
H881        H  0.31048890  0.63074387  0.63017710     0.14800
H882        H  0.30381552  0.70527030  0.69756407     0.00500
H883        H  0.37809056  0.69600510  0.62479095     0.15100
H884        H  0.37751739  0.63612780  0.69892749     0.14900
C885        C  0.34875585  0.85105066  0.64462039     0.86700
C886        C  0.35303749  0.85637731  0.68098271    -0.53500
C887        C  0.33578402  0.83702326  0.69968797     0.09600
C888        C  0.31559659  0.81427954  0.68082771     0.20600
C889        C  0.35690161  0.81746416  0.63961406    -0.54300
C890        C  0.33945305  0.79841433  0.65850278     0.09700
C891        C  0.31199616  0.85322125  0.63976377    -0.53800
C892        C  0.29499546  0.83380324  0.65850663     0.10300
H893        H  0.36772805  0.87419037  0.69109567     0.14800
H894        H  0.30145638  0.79862871  0.69616539     0.00500
H895        H  0.37456492  0.80952444  0.62241211     0.15100
H896        H  0.30010845  0.86901933  0.62373577     0.14900
C897        C  0.34570681  0.85792581  0.85178615     0.86700
C898        C  0.30890219  0.85973217  0.85673030    -0.53500
C899        C  0.29215952  0.83936177  0.83892194     0.09600
C900        C  0.31314760  0.81914356  0.81770736     0.20600
C901        C  0.35446131  0.82474702  0.85855220    -0.54300
C902        C  0.33740886  0.80465758  0.84077844     0.09700
C903        C  0.34984437  0.86174559  0.81521148    -0.53800
C904        C  0.33304484  0.84125738  0.79761206     0.10300
H905        H  0.29667735  0.87606032  0.87171725     0.14800
H906        H  0.29936198  0.80259885  0.80321592     0.00500
H907        H  0.37259285  0.81782622  0.87584108     0.15100
H908        H  0.36489781  0.87888896  0.80423957     0.14900
C909        C  0.33532053  0.83878755  0.73421651    -0.13100
C910        C  0.33436237  0.84014371  0.76307937    -0.14600
C911        C  0.34270607  0.73876794  0.65736388    -0.13100
C912        C  0.34218827  0.76598879  0.65706394    -0.14600
C913        C  0.34225023  0.67268838  0.76734388    -0.13100
C914        C  0.34233165  0.67165816  0.73846889    -0.14600
C915        C  0.34369297  0.74532578  0.84397128    -0.13100
C916        C  0.34182642  0.77247243  0.84325546    -0.14600
C917        C  0.23762766  0.66466896  0.66238852    -0.13100
C918        C  0.26654904  0.66563778  0.66236899    -0.14600
C919        C  0.15454130  0.75902266  0.65681089    -0.13100
C920        C  0.15581237  0.73184401  0.65819372    -0.14600
C921        C  0.23163969  0.83084829  0.65667567    -0.13100
C922        C  0.26050435  0.83214275  0.65755134    -0.14600
C923        C  0.15463569  0.83389603  0.76007145    -0.13100
C924        C  0.15515624  0.83288331  0.73124963    -0.14600
C925        C  0.22858643  0.83716813  0.83833560    -0.13100
C926        C  0.25753694  0.83800899  0.83894954    -0.14600
C927        C  0.16102958  0.66341858  0.76685054    -0.13100
C928        C  0.16095351  0.66224558  0.73795502    -0.14600
C929        C  0.23660569  0.67433265  0.84257825    -0.13100
C930        C  0.26553067  0.67544874  0.84248756    -0.14600
C931        C  0.15236489  0.73821196  0.84070943    -0.13100
C932        C  0.15138925  0.76539206  0.83991082    -0.14600
C933        C  0.07870468  0.60608510  0.88849746    -0.13100
C934        C  0.09147912  0.59307632  0.91646254     0.09000
C935        C  0.12242786  0.60147285  0.92629319    -0.13100
C936        C  0.14085030  0.62125993  0.90773348    -0.13100
C937        C  0.12887948  0.63305514  0.87863647     0.09000
C938        C  0.09696153  0.62618966  0.87013882    -0.13100
H939        H  0.05465116  0.60052686  0.88062745     0.13000
H940        H  0.13274582  0.59245900  0.94813056     0.13000
H941        H  0.16426633  0.62733248  0.91669324     0.13000
H942        H  0.08629875  0.63588382  0.84877014     0.13000
C943        C  0.06941436  0.88902261  0.61223615    -0.13100
C944        C  0.08156641  0.90368906  0.58497447     0.09000
C945        C  0.11241790  0.89601568  0.57411804    -0.13100
C946        C  0.13159490  0.87572053  0.59136018    -0.13100
C947        C  0.12053997  0.86276351  0.62020108     0.09000
C948        C  0.08847377  0.86841986  0.62930076    -0.13100
H949        H  0.04538699  0.89378092  0.62074726     0.13000
H950        H  0.12210974  0.90625094  0.55260386     0.13000
H951        H  0.15505459  0.87044563  0.58185160     0.13000
H952        H  0.07841498  0.85766874  0.65034247     0.13000
C953        C  0.38759620  0.61172094  0.57632541    -0.13100
C954        C  0.41303178  0.59450529  0.58886111     0.09000
C955        C  0.42148394  0.59808894  0.62115130    -0.13100
C956        C  0.40393153  0.61738014  0.64099642    -0.13100
C957        C  0.37733195  0.63366945  0.62901934     0.09000
C958        C  0.37024301  0.63132876  0.59607761    -0.13100
H959        H  0.38088199  0.60990647  0.55133998     0.13000
H960        H  0.44138191  0.58549792  0.63133239     0.13000
H961        H  0.41182018  0.61937205  0.66549585     0.13000
H962        H  0.35065200  0.64423320  0.58574725     0.13000
C963        C  0.07579272  0.60379470  0.61720486    -0.13100
C964        C  0.08838097  0.58785521  0.59101573     0.09000
C965        C  0.12070232  0.59198033  0.58276604    -0.13100
C966        C  0.14044391  0.61071050  0.60102461    -0.13100
C967        C  0.12839221  0.62580020  0.62823727     0.09000
C968        C  0.09546413  0.62281065  0.63532196    -0.13100
H969        H  0.05076664  0.60159254  0.62377203     0.13000
H970        H  0.13092452  0.58042822  0.56230519     0.13000
H971        H  0.16486375  0.61352322  0.59302106     0.13000
H972        H  0.08498336  0.63499583  0.65522430     0.13000
C973        C  0.37490112  0.91290893  0.91695326    -0.13100
C974        C  0.40698586  0.91739273  0.90791034     0.09000
C975        C  0.41896032  0.90209996  0.88105146    -0.13100
C976        C  0.39905876  0.88303249  0.86332827    -0.13100
C977        C  0.36643675  0.87939987  0.87142634     0.09000
C978        C  0.35486408  0.89416467  0.89901149    -0.13100
H979        H  0.36514935  0.92405042  0.93789225     0.13000
H980        H  0.44374758  0.90467482  0.87378101     0.13000
H981        H  0.40919905  0.87112928  0.84306431     0.13000
H982        H  0.33067546  0.89093155  0.90756269     0.13000
C983        C  0.42726545  0.61512170  0.88732947    -0.13100
C984        C  0.41459020  0.59973951  0.91391116     0.09000
C985        C  0.38317948  0.60643153  0.92378202    -0.13100
C986        C  0.36412199  0.62665362  0.90634969    -0.13100
C987        C  0.37584899  0.64054606  0.87825217     0.09000
C988        C  0.40827723  0.63562458  0.87002799    -0.13100
H989        H  0.45170019  0.61107512  0.87959822     0.13000
H990        H  0.37301331  0.59556438  0.94472809     0.13000
H991        H  0.34032304  0.63125655  0.91533082     0.13000
H992        H  0.41872205  0.64699194  0.84953864     0.13000
C993        C  0.10648528  0.89088686  0.92248012    -0.13100
C994        C  0.08201431  0.90920855  0.90987204     0.07900
C995        C  0.07422142  0.90675452  0.87726966    -0.13100
C996        C  0.09171420  0.88759125  0.85721457    -0.13100
C997        C  0.11748262  0.87025945  0.86935415     0.09000
C998        C  0.12369417  0.87137330  0.90253930    -0.13100
H999        H  0.11258552  0.89180485  0.94768262     0.13000
H1000       H  0.05502108  0.92022453  0.86701528     0.13000
H1001       H  0.08451852  0.88658716  0.83242853     0.13000
H1002       H  0.14258416  0.85761802  0.91293722     0.13000
C1003       C  0.37530441  0.90165795  0.57428271    -0.13100
C1004       C  0.40555714  0.91156124  0.58456333     0.09000
C1005       C  0.41800001  0.90020980  0.61349846    -0.13100
C1006       C  0.40001717  0.88029028  0.63235296    -0.13100
C1007       C  0.36872947  0.87185459  0.62322284     0.09000
C1008       C  0.35728751  0.88182814  0.59315639    -0.13100
H1009       H  0.36532583  0.90933974  0.55172909     0.13000
H1010       H  0.44160080  0.90689613  0.62172263     0.13000
H1011       H  0.41055166  0.87178062  0.65432426     0.13000
H1012       H  0.33448567  0.87428951  0.58381612     0.13000
C1013       C  0.92382830  0.43411077  0.06572703     0.42700
N1014       N  0.95787703  0.46895310  0.05481452     0.01600
C1015       C  0.96295435  0.06128482  0.42023975    -0.06300
H1016       H  0.97268156  0.44700521  0.39555363     0.07000
C1017       C  0.57645307  0.44427679  0.46059423    -0.06700
Co1018     Co  0.93955079  0.00451024  0.49641227     0.74200
N1019       N  0.96435262  0.47258760  0.43865939    -0.25900
Co1020     Co  0.50157785  0.00393210  0.44107678     0.74100
C1021       C  0.56552153  0.43175740  0.43008725     0.42800
N1022       N  0.55286647  0.46544838  0.03757688     0.01200
N1023       N  0.53560338  0.46940656  0.44261178     0.01300
N1024       N  0.92258368  0.06045010  0.45647528    -0.46700
H1025       H  0.89322120  0.44614685  0.02124650     0.07000
N1026       N  0.94079367  0.47271430  0.45980461     0.01600
N1027       N  0.53878538  0.03523304  0.44482461     0.01300
C1028       C  0.57294587  0.07023945  0.43466980     0.42900
N1029       N  0.52931626  0.46582196  0.05872312    -0.25300
C1030       C  0.91939600  0.05924491  0.03847207    -0.06200
N1031       N  0.95096041  0.44762300  0.07600043    -0.46400
N1032       N  0.54581247  0.05689855  0.42402072    -0.46600
C1033       C  0.92998435  0.07200540  0.06893429     0.42700
N1034       N  0.94352529  0.03844589  0.46181661     0.01500
N1035       N  0.53199328  0.03163137  0.06063699    -0.25300
N1036       N  0.93671127  0.47063314  0.03130950    -0.25800
N1037       N  0.55574457  0.03129067  0.03971329     0.01200
H1038       H  0.52292278  0.05793315  0.10309669     0.07100
H1039       H  0.60324327  0.05761720  0.47913909     0.07100
N1040       N  0.96721259  0.03826964  0.44082070    -0.25900
N1041       N  0.55657436  0.46753976  0.46627065    -0.25500
N1042       N  0.96062818  0.03474069  0.05667498     0.01600
C1043       C  0.92745838  0.43842194  0.42618724     0.43000
C1044       C  0.53352543  0.44272408  0.07923682    -0.06700
N1045       N  0.55988837  0.03325074  0.46835702    -0.25500
H1046       H  0.59680377  0.43791403  0.47527259     0.07100
N1047       N  0.91808516  0.45287353  0.45306615    -0.46700
H1048       H  0.51857062  0.43794697  0.09980477     0.07100
C1049       C  0.56838752  0.06632414  0.07281582     0.42800
C1050       C  0.91423676  0.44943553  0.03604963    -0.06200
Co1051     Co  0.99489790  0.50026373  0.05836647     0.73800
N1052       N  0.57362523  0.44324860  0.04270691    -0.46400
C1053       C  0.93332515  0.07606265  0.43077659     0.43100
N1054       N  0.95546322  0.05548243  0.07888863    -0.46400
Co1055     Co  0.55693475  0.49934388  0.00304321     0.73900
C1056       C  0.58238654  0.05447290  0.46407944    -0.06700
C1057       C  0.95819486  0.45148254  0.41651975    -0.06300
N1058       N  0.93967926  0.03628715  0.03298239    -0.25800
N1059       N  0.54031883  0.44867488  0.42031053    -0.46600
H1060       H  0.97791538  0.06605237  0.39967386     0.07100
C1061       C  0.53772015  0.05315255  0.08242420    -0.06700
Cl1062     Cl  0.49824042  0.00200647  0.99972467    -0.49700
C1063       C  0.56294375  0.42767767  0.06844496     0.42800
H1064       H  0.89897731  0.06519602  0.02369742     0.07000
N1065       N  0.57819582  0.05146291  0.04630204    -0.46400
C1066       C  0.64887699  0.15362211  0.35697050     0.86700
C1067       C  0.68570302  0.15305646  0.36221405    -0.53500
C1068       C  0.70206676  0.17214456  0.34245144     0.09600
C1069       C  0.68078657  0.18995063  0.31914755     0.20600
C1070       C  0.63934589  0.18707350  0.36024834    -0.54300
C1071       C  0.65617888  0.20588615  0.34057712     0.09700
C1072       C  0.64510434  0.14658939  0.32090792    -0.53800
C1073       C  0.66156410  0.16576642  0.30134347     0.10300
H1074       H  0.69821288  0.13836743  0.37890641     0.14800
H1075       H  0.69433293  0.20543336  0.30309631     0.00500
H1076       H  0.62126354  0.19513065  0.37695208     0.15100
H1077       H  0.63076400  0.12811384  0.31164982     0.14900
C1078       C  0.63850097  0.35017960  0.34825989     0.86700
C1079       C  0.63470902  0.35342321  0.31148147    -0.53500
C1080       C  0.65416911  0.33453768  0.29453884     0.09600
C1081       C  0.67571542  0.31427415  0.31515975     0.20600
C1082       C  0.63306311  0.31638536  0.35500387    -0.54300
C1083       C  0.65247836  0.29781532  0.33761059     0.09700
C1084       C  0.67475554  0.35513869  0.35395240    -0.53800
C1085       C  0.69399237  0.33620960  0.33678596     0.10300
H1086       H  0.61903883  0.36931794  0.29936141     0.14800
H1087       H  0.69151393  0.29897320  0.30108617     0.00500
H1088       H  0.61541044  0.30797197  0.37196365     0.15100
H1089       H  0.68431698  0.37210556  0.37008177     0.14900
C1090       C  0.64226443  0.34325806  0.14147665     0.86700
C1091       C  0.67886093  0.34740016  0.13666927    -0.53500
C1092       C  0.69711776  0.32952086  0.15612624     0.09600
C1093       C  0.67784134  0.30928729  0.17873798     0.20600
C1094       C  0.63652153  0.30913453  0.13732727    -0.54300
C1095       C  0.65527130  0.29156989  0.15679106     0.09700
C1096       C  0.63753167  0.34910317  0.17765280    -0.53800
C1097       C  0.65593374  0.33114045  0.19684418     0.10300
H1098       H  0.68975165  0.36369340  0.12060117     0.14800
H1099       H  0.69295458  0.29486242  0.19460870     0.00500
H1100       H  0.61935673  0.29980267  0.12045680     0.15100
H1101       H  0.62133217  0.36605227  0.18730459     0.14900
C1102       C  0.64919830  0.14658035  0.14872361     0.86700
C1103       C  0.64443618  0.14233269  0.18519745    -0.53500
C1104       C  0.66171632  0.16207349  0.20336697     0.09600
C1105       C  0.68239243  0.18404672  0.18388652     0.20600
C1106       C  0.64148290  0.18007248  0.14241721    -0.54300
C1107       C  0.65887326  0.19948898  0.16073577     0.09700
C1108       C  0.68601802  0.14395554  0.14430091    -0.53800
C1109       C  0.70304271  0.16366482  0.16259854     0.10300
H1110       H  0.62887617  0.12531197  0.19566104     0.14800
H1111       H  0.69650157  0.20001442  0.19879448     0.00500
H1112       H  0.62392767  0.18769745  0.12487030     0.15100
H1113       H  0.69810485  0.12765149  0.12919322     0.14900
C1114       C  0.85465654  0.16069340  0.35710532     0.86700
C1115       C  0.85955248  0.15543265  0.32083839    -0.53500
C1116       C  0.84159408  0.17405044  0.30185679     0.09600
C1117       C  0.82000946  0.19598187  0.32034038     0.20600
C1118       C  0.86108306  0.19460105  0.36200325    -0.54300
C1119       C  0.84281887  0.21284306  0.34281695     0.09700
C1120       C  0.81793951  0.15718059  0.36160156    -0.53800
C1121       C  0.80014778  0.17577126  0.34250072     0.10300
H1122       H  0.87553913  0.13838895  0.31102205     0.14800
H1123       H  0.80528113  0.21099716  0.30473074     0.00500
H1124       H  0.87819428  0.20331026  0.37930506     0.15100
H1125       H  0.80652894  0.14091882  0.37731639     0.14900
C1126       C  0.85644865  0.15393278  0.15010424     0.86700
C1127       C  0.82017940  0.14822131  0.14560059    -0.53500
C1128       C  0.80110016  0.16718568  0.16288954     0.09600
C1129       C  0.81951843  0.18994343  0.18341779     0.20600
C1130       C  0.86099092  0.18767174  0.14234956    -0.54300
C1131       C  0.84175176  0.20631528  0.15988021     0.09700
C1132       C  0.86133049  0.15159282  0.18686362    -0.53800
C1133       C  0.84203449  0.17052826  0.20393711     0.10300
H1134       H  0.81048914  0.13074362  0.13017711     0.14800
H1135       H  0.80381537  0.20527005  0.19756408     0.00500
H1136       H  0.87809061  0.19600499  0.12479114     0.15100
H1137       H  0.87751750  0.13612784  0.19892777     0.14900
C1138       C  0.84875602  0.35105040  0.14461998     0.86700
C1139       C  0.85303764  0.35637710  0.18098228    -0.53500
C1140       C  0.83578402  0.33702319  0.19968756     0.09600
C1141       C  0.81559649  0.31427954  0.18082733     0.20600
C1142       C  0.85690158  0.31746385  0.13961373    -0.54300
C1143       C  0.83945289  0.29841415  0.15850248     0.09700
C1144       C  0.81199635  0.35322119  0.13976329    -0.53800
C1145       C  0.79499551  0.33380331  0.15850618     0.10300
H1146       H  0.86772827  0.37419011  0.19109523     0.14800
H1147       H  0.80145616  0.29862882  0.19616503     0.00500
H1148       H  0.87456490  0.30952399  0.12241185     0.15100
H1149       H  0.80010879  0.36901932  0.12373521     0.14900
C1150       C  0.84570706  0.35792606  0.35178564     0.86700
C1151       C  0.80890247  0.35973242  0.35672988    -0.53500
C1152       C  0.79215976  0.33936195  0.33892164     0.09600
C1153       C  0.81314779  0.31914373  0.31770704     0.20600
C1154       C  0.85446162  0.32474730  0.35855174    -0.54300
C1155       C  0.83740913  0.30465782  0.34077809     0.09700
C1156       C  0.84984451  0.36174578  0.31521095    -0.53800
C1157       C  0.83304495  0.34125751  0.29761163     0.10300
H1158       H  0.79667768  0.37606061  0.37171684     0.14800
H1159       H  0.79936215  0.30259897  0.30321568     0.00500
H1160       H  0.87259319  0.31782654  0.37584060     0.15100
H1161       H  0.86489787  0.37888915  0.30423895     0.14900
C1162       C  0.83532051  0.33878756  0.23421609    -0.13100
C1163       C  0.83436239  0.34014378  0.26307895    -0.14600
C1164       C  0.84270587  0.23876776  0.15736388    -0.13100
C1165       C  0.84218803  0.26598860  0.15706382    -0.14600
C1166       C  0.84225029  0.17268840  0.26734404    -0.13100
C1167       C  0.84233163  0.17165813  0.23846904    -0.14600
C1168       C  0.84369311  0.24532602  0.34397118    -0.13100
C1169       C  0.84182664  0.27247268  0.34325523    -0.14600
C1170       C  0.73762771  0.16466863  0.16238831    -0.13100
C1171       C  0.76654909  0.16563744  0.16236886    -0.14600
C1172       C  0.65454165  0.25902270  0.15681076    -0.13100
C1173       C  0.65581270  0.23184405  0.15819356    -0.14600
C1174       C  0.73163972  0.33084863  0.15667532    -0.13100
C1175       C  0.76050439  0.33214303  0.15755089    -0.14600
C1176       C  0.65463594  0.33389578  0.26007155    -0.13100
C1177       C  0.65515651  0.33288309  0.23124972    -0.14600
C1178       C  0.72858668  0.33716812  0.33833556    -0.13100
C1179       C  0.75753720  0.33800909  0.33894939    -0.14600
C1180       C  0.66102983  0.16341868  0.26685045    -0.13100
C1181       C  0.66095376  0.16224573  0.23795493    -0.14600
C1182       C  0.73660572  0.17433277  0.34257831    -0.13100
C1183       C  0.76553069  0.17544899  0.34248762    -0.14600
C1184       C  0.65236492  0.23821188  0.34070954    -0.13100
C1185       C  0.65138938  0.26539198  0.33991100    -0.14600
C1186       C  0.57870470  0.10608485  0.38849705    -0.13100
C1187       C  0.59147903  0.09307620  0.41646223     0.09000
C1188       C  0.62242772  0.10147282  0.42629298    -0.13100
C1189       C  0.64085022  0.12125986  0.40773330    -0.13100
C1190       C  0.62887950  0.13305495  0.37863620     0.09000
C1191       C  0.59696160  0.12618937  0.37013842    -0.13100
H1192       H  0.55465123  0.10052655  0.38062695     0.13000
H1193       H  0.63274557  0.09245908  0.44813041     0.13000
H1194       H  0.66426621  0.12733248  0.41669315     0.13000
H1195       H  0.58629890  0.13588347  0.34876968     0.13000
C1196       C  0.56941447  0.38902323  0.11223681    -0.13100
C1197       C  0.58156629  0.40368906  0.08497465     0.09000
C1198       C  0.61241745  0.39601500  0.07411779    -0.13100
C1199       C  0.63159438  0.37571981  0.09135995    -0.13100
C1200       C  0.62053977  0.36276351  0.12020134     0.09000
C1201       C  0.58847382  0.36842049  0.12930146    -0.13100
H1202       H  0.54538734  0.39378204  0.12074827     0.13000
H1203       H  0.62210907  0.40624974  0.05260323     0.13000
H1204       H  0.65505382  0.37044435  0.08185111     0.13000
H1205       H  0.57841517  0.35766984  0.15034348     0.13000
C1206       C  0.88759667  0.11172121  0.07632546    -0.13100
C1207       C  0.91303179  0.09450505  0.08886129     0.09000
C1208       C  0.92148355  0.09808818  0.12115164    -0.13100
C1209       C  0.90393119  0.11737940  0.14099677    -0.13100
C1210       C  0.87733209  0.13366930  0.12901954     0.09000
C1211       C  0.87024354  0.13132907  0.09607769    -0.13100
H1212       H  0.88088279  0.10990712  0.05133992     0.13000
H1213       H  0.94138113  0.08549669  0.13133287     0.13000
H1214       H  0.91181950  0.11937079  0.16549632     0.13000
H1215       H  0.85065284  0.14423390  0.08574724     0.13000
C1216       C  0.57579274  0.10379419  0.11720544    -0.13100
C1217       C  0.58838081  0.08785535  0.09101576     0.09000
C1218       C  0.62070191  0.09198119  0.08276551    -0.13100
C1219       C  0.64044348  0.11071139  0.10102407    -0.13100
C1220       C  0.62839205  0.12580031  0.12823733     0.09000
C1221       C  0.59546415  0.12281015  0.13532254    -0.13100
H1222       H  0.55076682  0.10159152  0.12377305     0.13000
H1223       H  0.63092393  0.08042964  0.06230419     0.13000
H1224       H  0.66486309  0.11352477  0.09302010     0.13000
H1225       H  0.58498350  0.13499484  0.15522528     0.13000
C1226       C  0.87490150  0.41290860  0.41695319    -0.13100
C1227       C  0.90698608  0.41739288  0.40790996     0.09000
C1228       C  0.91896042  0.40210061  0.38105070    -0.13100
C1229       C  0.89905886  0.38303321  0.36332742    -0.13100
C1230       C  0.86643699  0.37940015  0.37142580     0.09000
C1231       C  0.85486449  0.39416438  0.39901135    -0.13100
H1232       H  0.86514984  0.42404967  0.43789251     0.13000
H1233       H  0.94374757  0.40467582  0.37378000     0.13000
H1234       H  0.90919909  0.37113036  0.34306319     0.13000
H1235       H  0.83067603  0.39093082  0.40756279     0.13000
C1236       C  0.92726544  0.11512224  0.38733005    -0.13100
C1237       C  0.91459006  0.09973976  0.41391148     0.09000
C1238       C  0.88317922  0.10643153  0.42378214    -0.13100
C1239       C  0.86412174  0.12665364  0.40634982    -0.13100
C1240       C  0.87584889  0.14054636  0.37825251     0.09000
C1241       C  0.90827724  0.13562514  0.37002858    -0.13100
H1242       H  0.95170027  0.11107587  0.37959898     0.13000
H1243       H  0.87301293  0.09556415  0.44472801     0.13000
H1244       H  0.84032269  0.13125634  0.41533080     0.13000
H1245       H  0.91872213  0.14699270  0.34953939     0.13000
C1246       C  0.60648559  0.39088686  0.42248021    -0.13100
C1247       C  0.58201464  0.40920857  0.40987210     0.07900
C1248       C  0.57422180  0.40675458  0.37726971    -0.13100
C1249       C  0.59171457  0.38759130  0.35721462    -0.13100
C1250       C  0.61748293  0.37025944  0.36935423     0.09000
C1251       C  0.62369448  0.37137328  0.40253939    -0.13100
H1252       H  0.61258580  0.39180483  0.44768272     0.13000
H1253       H  0.55502148  0.42022463  0.36701532     0.13000
H1254       H  0.58451891  0.38658724  0.33242854     0.13000
H1255       H  0.64258445  0.35761796  0.41293733     0.13000
C1256       C  0.87530486  0.40165720  0.07428205    -0.13100
C1257       C  0.90555741  0.41156079  0.08456286     0.09000
C1258       C  0.91800017  0.40020958  0.11349814    -0.13100
C1259       C  0.90001733  0.38029008  0.13235265    -0.13100
C1260       C  0.86872975  0.37185418  0.12322237     0.09000
C1261       C  0.85728797  0.38182738  0.09315573    -0.13100
H1262       H  0.86532640  0.40933878  0.05172830     0.13000
H1263       H  0.94160086  0.40689613  0.12172245     0.13000
H1264       H  0.91055173  0.37178064  0.15432407     0.13000
H1265       H  0.83448625  0.37428854  0.08381538     0.13000
C1266       C  0.92382832  0.43411081  0.56572708     0.42700
N1267       N  0.95787705  0.46895314  0.55481454     0.01600
C1268       C  0.96295437  0.06128480  0.92023978    -0.06300
H1269       H  0.97268160  0.44700522  0.89555362     0.07000
C1270       C  0.57645307  0.44427675  0.96059420    -0.06700
Co1271     Co  0.93955080  0.00451021  0.99641229     0.74200
N1272       N  0.96435265  0.47258760  0.93865937    -0.25900
Co1273     Co  0.50157780  0.00393215  0.94107680     0.74100
C1274       C  0.56552152  0.43175736  0.93008722     0.42800
N1275       N  0.55286647  0.46544847  0.53757691     0.01200
N1276       N  0.53560337  0.46940651  0.94261177     0.01300
N1277       N  0.92258369  0.06045008  0.95647530    -0.46700
H1278       H  0.89322120  0.44614685  0.52124653     0.07000
N1279       N  0.94079369  0.47271430  0.95980458     0.01600
N1280       N  0.53878534  0.03523308  0.94482466     0.01300
C1281       C  0.57294582  0.07023949  0.93466984     0.42900
N1282       N  0.52931626  0.46582205  0.55872315    -0.25300
C1283       C  0.91939608  0.05924498  0.53847205    -0.06200
N1284       N  0.95096043  0.44762306  0.57600046    -0.46400
N1285       N  0.54581241  0.05689859  0.92402077    -0.46600
C1286       C  0.92998445  0.07200548  0.56893425     0.42700
N1287       N  0.94352531  0.03844587  0.96181664     0.01500
N1288       N  0.53199332  0.03163145  0.56063692    -0.25300
N1289       N  0.93671129  0.47063316  0.53130952    -0.25800
N1290       N  0.55574461  0.03129073  0.53971323     0.01200
H1291       H  0.52292285  0.05793327  0.60309656     0.07100
H1292       H  0.60324325  0.05761722  0.97913911     0.07100
N1293       N  0.96721261  0.03826963  0.94082074    -0.25900
N1294       N  0.55657436  0.46753971  0.96627063    -0.25500
N1295       N  0.96062822  0.03474072  0.55667494     0.01600
C1296       C  0.92745840  0.43842196  0.92618720     0.43000
C1297       C  0.53352546  0.44272418  0.57923686    -0.06700
N1298       N  0.55988833  0.03325077  0.96835706    -0.25500
H1299       H  0.59680377  0.43791398  0.97527256     0.07100
N1300       N  0.91808517  0.45287354  0.95306610    -0.46700
H1301       H  0.51857066  0.43794706  0.59980482     0.07100
C1302       C  0.56838756  0.06632424  0.57281569     0.42800
C1303       C  0.91423678  0.44943554  0.53604966    -0.06200
Co1304     Co  0.99489790  0.50026379  0.55836646     0.73800
N1305       N  0.57362525  0.44324872  0.54270695    -0.46400
C1306       C  0.93332516  0.07606262  0.93077660     0.43100
N1307       N  0.95546330  0.05548248  0.57888859    -0.46400
Co1308     Co  0.55693473  0.49934395  0.50304322     0.73900
C1309       C  0.58238651  0.05447293  0.96407947    -0.06700
C1310       C  0.95819488  0.45148255  0.91651972    -0.06300
N1311       N  0.93967929  0.03628720  0.53298236    -0.25800
N1312       N  0.54031881  0.44867483  0.92031051    -0.46600
H1313       H  0.97791539  0.06605234  0.89967390     0.07100
C1314       C  0.53772020  0.05315266  0.58242409    -0.06700
Cl1315     Cl  0.49824046  0.00200647  0.49972465    -0.49700
C1316       C  0.56294379  0.42767779  0.56844500     0.42800
H1317       H  0.89897741  0.06519611  0.52369742     0.07000
N1318       N  0.57819586  0.05146298  0.54630194    -0.46400
C1319       C  0.64887689  0.15362214  0.85697043     0.86700
C1320       C  0.68570291  0.15305646  0.86221400    -0.53500
C1321       C  0.70206669  0.17214452  0.84245139     0.09600
C1322       C  0.68078653  0.18995060  0.81914747     0.20600
C1323       C  0.63934582  0.18707354  0.86024824    -0.54300
C1324       C  0.65617884  0.20588616  0.84057701     0.09700
C1325       C  0.64510424  0.14658940  0.82090786    -0.53800
C1326       C  0.66156403  0.16576640  0.80134340     0.10300
H1327       H  0.69821273  0.13836743  0.87890637     0.14800
H1328       H  0.69433291  0.20543330  0.80309623     0.00500
H1329       H  0.62126346  0.19513072  0.87695196     0.15100
H1330       H  0.63076388  0.12811385  0.81164976     0.14900
C1331       C  0.63850098  0.35017961  0.84825982     0.86700
C1332       C  0.63470903  0.35342328  0.81148141    -0.53500
C1333       C  0.65416913  0.33453777  0.79453876     0.09600
C1334       C  0.67571542  0.31427420  0.81515963     0.20600
C1335       C  0.63306310  0.31638536  0.85500375    -0.54300
C1336       C  0.65247835  0.29781534  0.83761045     0.09700
C1337       C  0.67475554  0.35513868  0.85395235    -0.53800
C1338       C  0.69399238  0.33620962  0.83678588     0.10300
H1339       H  0.61903886  0.36931804  0.79936139     0.14800
H1340       H  0.69151393  0.29897327  0.80108603     0.00500
H1341       H  0.61541043  0.30797195  0.87196352     0.15100
H1342       H  0.68431698  0.37210552  0.87008173     0.14900
C1343       C  0.64226451  0.34325813  0.64147657     0.86700
C1344       C  0.67886102  0.34740019  0.63666919    -0.53500
C1345       C  0.69711783  0.32952089  0.65612619     0.09600
C1346       C  0.67784138  0.30928735  0.67873794     0.20600
C1347       C  0.63652159  0.30913460  0.63732720    -0.54300
C1348       C  0.65527133  0.29156996  0.65679102     0.09700
C1349       C  0.63753174  0.34910327  0.67765271    -0.53800
C1350       C  0.65593380  0.33114055  0.69684411     0.10300
H1351       H  0.68975177  0.36369341  0.62060109     0.14800
H1352       H  0.69295460  0.29486248  0.69460868     0.00500
H1353       H  0.61935679  0.29980274  0.62045673     0.15100
H1354       H  0.62133226  0.36605238  0.68730448     0.14900
C1355       C  0.64919835  0.14658043  0.64872350     0.86700
C1356       C  0.64443619  0.14233274  0.68519732    -0.53500
C1357       C  0.66171630  0.16207353  0.70336689     0.09600
C1358       C  0.68239244  0.18404677  0.68388647     0.20600
C1359       C  0.64148295  0.18007256  0.64241711    -0.54300
C1360       C  0.65887329  0.19948905  0.66073571     0.09700
C1361       C  0.68601806  0.14395562  0.64430083    -0.53800
C1362       C  0.70304274  0.16366489  0.66259850     0.10300
H1363       H  0.62887616  0.12531203  0.69566089     0.14800
H1364       H  0.69650156  0.20001446  0.69879446     0.00500
H1365       H  0.62392775  0.18769754  0.62487019     0.15100
H1366       H  0.69810491  0.12765159  0.62919314     0.14900
C1367       C  0.85465650  0.16069332  0.85710531     0.86700
C1368       C  0.85955240  0.15543255  0.82083838    -0.53500
C1369       C  0.84159400  0.17405034  0.80185679     0.09600
C1370       C  0.82000940  0.19598179  0.82034038     0.20600
C1371       C  0.86108303  0.19460097  0.86200322    -0.54300
C1372       C  0.84281883  0.21284298  0.84281693     0.09700
C1373       C  0.81793946  0.15718051  0.86160158    -0.53800
C1374       C  0.80014772  0.17577119  0.84250075     0.10300
H1375       H  0.87553905  0.13838886  0.81102203     0.14800
H1376       H  0.80528106  0.21099707  0.80473075     0.00500
H1377       H  0.87819428  0.20331018  0.87930500     0.15100
H1378       H  0.80652891  0.14091874  0.87731643     0.14900
C1379       C  0.85644869  0.15393279  0.65010424     0.86700
C1380       C  0.82017944  0.14822136  0.64560054    -0.53500
C1381       C  0.80110020  0.16718573  0.66288949     0.09600
C1382       C  0.81951848  0.18994344  0.68341779     0.20600
C1383       C  0.86099101  0.18767175  0.64234961    -0.54300
C1384       C  0.84175185  0.20631530  0.65988025     0.09700
C1385       C  0.86133049  0.15159278  0.68686362    -0.53800
C1386       C  0.84203449  0.17052822  0.70393711     0.10300
H1387       H  0.81048919  0.13074370  0.63017704     0.14800
H1388       H  0.80381541  0.20527006  0.69756408     0.00500
H1389       H  0.87809072  0.19600500  0.62479121     0.15100
H1390       H  0.87751746  0.13612777  0.69892777     0.14900
C1391       C  0.84875607  0.35105043  0.64462002     0.86700
C1392       C  0.85303765  0.35637714  0.68098233    -0.53500
C1393       C  0.83578404  0.33702321  0.69968759     0.09600
C1394       C  0.81559655  0.31427954  0.68082735     0.20600
C1395       C  0.85690167  0.31746388  0.63961379    -0.54300
C1396       C  0.83945299  0.29841417  0.65850252     0.09700
C1397       C  0.81199640  0.35322119  0.63976330    -0.53800
C1398       C  0.79499557  0.33380329  0.65850618     0.10300
H1399       H  0.86772825  0.37419016  0.69109529     0.14800
H1400       H  0.80145622  0.29862880  0.69616504     0.00500
H1401       H  0.87456501  0.30952405  0.62241193     0.15100
H1402       H  0.80010884  0.36901930  0.62373523     0.14900
C1403       C  0.84570708  0.35792600  0.85178566     0.86700
C1404       C  0.80890249  0.35973235  0.85672991    -0.53500
C1405       C  0.79215977  0.33936190  0.83892166     0.09600
C1406       C  0.81314780  0.31914368  0.81770704     0.20600
C1407       C  0.85446164  0.32474723  0.85855174    -0.54300
C1408       C  0.83740914  0.30465775  0.84077807     0.09700
C1409       C  0.84984452  0.36174573  0.81521098    -0.53800
C1410       C  0.83304495  0.34125748  0.79761165     0.10300
H1411       H  0.79667770  0.37606052  0.87171687     0.14800
H1412       H  0.79936215  0.30259893  0.80321568     0.00500
H1413       H  0.87259322  0.31782646  0.87584059     0.15100
H1414       H  0.86489788  0.37888911  0.80423899     0.14900
C1415       C  0.83532051  0.33878756  0.73421611    -0.13100
C1416       C  0.83436238  0.34014376  0.76307897    -0.14600
C1417       C  0.84270598  0.23876777  0.65736394    -0.13100
C1418       C  0.84218816  0.26598862  0.65706387    -0.14600
C1419       C  0.84225021  0.17268831  0.76734404    -0.13100
C1420       C  0.84233159  0.17165805  0.73846904    -0.14600
C1421       C  0.84369310  0.24532594  0.84397114    -0.13100
C1422       C  0.84182665  0.27247261  0.84325520    -0.14600
C1423       C  0.73762774  0.16466870  0.66238827    -0.13100
C1424       C  0.76654913  0.16563750  0.66236882    -0.14600
C1425       C  0.65454169  0.25902277  0.65681071    -0.13100
C1426       C  0.65581274  0.23184412  0.65819350    -0.14600
C1427       C  0.73163979  0.33084862  0.65667529    -0.13100
C1428       C  0.76050445  0.33214300  0.65755088    -0.14600
C1429       C  0.65463597  0.33389592  0.76007147    -0.13100
C1430       C  0.65515656  0.33288322  0.73124965    -0.14600
C1431       C  0.72858669  0.33716812  0.83833551    -0.13100
C1432       C  0.75753720  0.33800906  0.83894937    -0.14600
C1433       C  0.66102976  0.16341866  0.76685037    -0.13100
C1434       C  0.66095371  0.16224574  0.73795485    -0.14600
C1435       C  0.73660565  0.17433271  0.84257831    -0.13100
C1436       C  0.76553063  0.17544892  0.84248764    -0.14600
C1437       C  0.65236491  0.23821189  0.84070939    -0.13100
C1438       C  0.65138939  0.26539199  0.83991082    -0.14600
C1439       C  0.57870464  0.10608480  0.88849700    -0.13100
C1440       C  0.59147897  0.09307624  0.91646225     0.09000
C1441       C  0.62242761  0.10147296  0.92629303    -0.13100
C1442       C  0.64085007  0.12126001  0.90773332    -0.13100
C1443       C  0.62887938  0.13305500  0.87863616     0.09000
C1444       C  0.59696152  0.12618933  0.87013835    -0.13100
H1445       H  0.55465120  0.10052642  0.88062687     0.13000
H1446       H  0.63274546  0.09245929  0.94813053     0.13000
H1447       H  0.66426601  0.12733272  0.91669318     0.13000
H1448       H  0.58629882  0.13588334  0.84876956     0.13000
C1449       C  0.56941451  0.38902324  0.61223675    -0.13100
C1450       C  0.58156635  0.40368919  0.58497467     0.09000
C1451       C  0.61241755  0.39601522  0.57411784    -0.13100
C1452       C  0.63159451  0.37572002  0.59135996    -0.13100
C1453       C  0.62053986  0.36276358  0.62020127     0.09000
C1454       C  0.58847387  0.36842047  0.62930136    -0.13100
H1455       H  0.54538734  0.39378198  0.62074818     0.13000
H1456       H  0.62210919  0.40625006  0.55260334     0.13000
H1457       H  0.65505400  0.37044464  0.58185113     0.13000
H1458       H  0.57841521  0.35766972  0.65034333     0.13000
C1459       C  0.88759680  0.11172132  0.57632543    -0.13100
C1460       C  0.91303190  0.09450513  0.58886127     0.09000
C1461       C  0.92148363  0.09808823  0.62115163    -0.13100
C1462       C  0.90393126  0.11737942  0.64099678    -0.13100
C1463       C  0.87733216  0.13366933  0.62901954     0.09000
C1464       C  0.87024365  0.13132914  0.59607767    -0.13100
H1465       H  0.88088295  0.10990726  0.55133987     0.13000
H1466       H  0.94138121  0.08549673  0.63133286     0.13000
H1467       H  0.91181954  0.11937079  0.66549635     0.13000
H1468       H  0.85065297  0.14423398  0.58574723     0.13000
C1469       C  0.57579279  0.10379434  0.61720526    -0.13100
C1470       C  0.58838086  0.08785546  0.59101562     0.09000
C1471       C  0.62070197  0.09198125  0.58276540    -0.13100
C1472       C  0.64044355  0.11071144  0.60102397    -0.13100
C1473       C  0.62839210  0.12580040  0.62823719     0.09000
C1474       C  0.59546419  0.12281029  0.63532236    -0.13100
H1475       H  0.55076687  0.10159170  0.62377284     0.13000
H1476       H  0.63092401  0.08042967  0.56230410     0.13000
H1477       H  0.66486319  0.11352477  0.59302003     0.13000
H1478       H  0.58498354  0.13499500  0.65522508     0.13000
C1479       C  0.87490151  0.41290867  0.91695310    -0.13100
C1480       C  0.90698610  0.41739289  0.90790991     0.09000
C1481       C  0.91896046  0.40210056  0.88105070    -0.13100
C1482       C  0.89905891  0.38303311  0.86332745    -0.13100
C1483       C  0.86643702  0.37940010  0.87142581     0.09000
C1484       C  0.85486450  0.39416443  0.89901129    -0.13100
H1485       H  0.86514984  0.42404979  0.93789235     0.13000
H1486       H  0.94374761  0.40467573  0.87378003     0.13000
H1487       H  0.90919914  0.37113020  0.84306325     0.13000
H1488       H  0.83067602  0.39093092  0.90756271     0.13000
C1489       C  0.92726542  0.11512215  0.88733000    -0.13100
C1490       C  0.91459007  0.09973971  0.91391148     0.09000
C1491       C  0.88317923  0.10643151  0.92378216    -0.13100
C1492       C  0.86412175  0.12665360  0.90634983    -0.13100
C1493       C  0.87584887  0.14054628  0.87825249     0.09000
C1494       C  0.90827720  0.13562503  0.87002852    -0.13100
H1495       H  0.95170025  0.11107575  0.87959891     0.13000
H1496       H  0.87301296  0.09556415  0.94472808     0.13000
H1497       H  0.84032272  0.13125632  0.91533082     0.13000
H1498       H  0.91872208  0.14699256  0.84953930     0.13000
C1499       C  0.60648567  0.39088691  0.92248014    -0.13100
C1500       C  0.58201463  0.40920853  0.90987207     0.07900
C1501       C  0.57422169  0.40675444  0.87726971    -0.13100
C1502       C  0.59171446  0.38759116  0.85721462    -0.13100
C1503       C  0.61748292  0.37025942  0.86935418     0.09000
C1504       C  0.62369455  0.37137334  0.90253931    -0.13100
H1505       H  0.61258596  0.39180496  0.94768262     0.13000
H1506       H  0.55502129  0.42022441  0.86701535     0.13000
H1507       H  0.58451873  0.38658701  0.83242858     0.13000
H1508       H  0.64258458  0.35761810  0.91293723     0.13000
C1509       C  0.87530489  0.40165725  0.57428212    -0.13100
C1510       C  0.90555743  0.41156086  0.58456293     0.09000
C1511       C  0.91800018  0.40020968  0.61349824    -0.13100
C1512       C  0.90001735  0.38029018  0.63235274    -0.13100
C1513       C  0.86872979  0.37185423  0.62322244     0.09000
C1514       C  0.85728802  0.38182743  0.59315580    -0.13100
H1515       H  0.86532644  0.40933881  0.55172835     0.13000
H1516       H  0.94160083  0.40689625  0.62172254     0.13000
H1517       H  0.91055175  0.37178075  0.65432419     0.13000
H1518       H  0.83448633  0.37428857  0.58381544     0.13000
C1519       C  0.92382828  0.93411072  0.06572710     0.42700
N1520       N  0.95787701  0.96895306  0.05481455     0.01600
C1521       C  0.96295446  0.56128480  0.42023971    -0.06300
H1522       H  0.97268143  0.94700516  0.39555366     0.07000
C1523       C  0.57645306  0.94427682  0.46059420    -0.06700
Co1524     Co  0.93955088  0.50451025  0.49641225     0.74200
N1525       N  0.96435249  0.97258758  0.43865939    -0.25900
Co1526     Co  0.50157792  0.50393213  0.44107679     0.74100
C1527       C  0.56552152  0.93175742  0.43008722     0.42800
N1528       N  0.55286641  0.96544843  0.03757685     0.01200
N1529       N  0.53560333  0.96940654  0.44261177     0.01300
N1530       N  0.92258377  0.56045008  0.45647524    -0.46700
H1531       H  0.89322114  0.94614679  0.02124658     0.07000
N1532       N  0.94079355  0.97271429  0.45980462     0.01600
N1533       N  0.53878546  0.53523305  0.44482464     0.01300
C1534       C  0.57294594  0.57023945  0.43466979     0.42900
N1535       N  0.52931621  0.96582197  0.05872310    -0.25300
C1536       C  0.91939613  0.55924498  0.03847200    -0.06200
N1537       N  0.95096039  0.94762297  0.07600047    -0.46400
N1538       N  0.54581254  0.55689855  0.42402073    -0.46600
C1539       C  0.92998449  0.57200548  0.06893421     0.42700
N1540       N  0.94352539  0.53844589  0.46181659     0.01500
N1541       N  0.53199338  0.53163136  0.06063696    -0.25300
N1542       N  0.93671123  0.97063310  0.03130954    -0.25800
N1543       N  0.55574468  0.53129062  0.03971328     0.01200
H1544       H  0.52292289  0.55793318  0.10309664     0.07100
H1545       H  0.60324333  0.55761721  0.47913907     0.07100
N1546       N  0.96721270  0.53826964  0.44082069    -0.25900
N1547       N  0.55657433  0.96753976  0.46627063    -0.25500
N1548       N  0.96062828  0.53474073  0.05667492     0.01600
C1549       C  0.92745825  0.93842191  0.42618728     0.43000
C1550       C  0.53352543  0.94272409  0.07923679    -0.06700
N1551       N  0.55988844  0.53325075  0.46835704    -0.25500
H1552       H  0.59680380  0.93791408  0.47527255     0.07100
N1553       N  0.91808503  0.95287352  0.45306618    -0.46700
H1554       H  0.51857066  0.93794694  0.09980475     0.07100
C1555       C  0.56838765  0.56632410  0.07281578     0.42800
C1556       C  0.91423672  0.94943547  0.03604969    -0.06200
Co1557     Co  0.99489785  0.00026373  0.05836650     0.73800
N1558       N  0.57362521  0.94324869  0.04270686    -0.46400
C1559       C  0.93332524  0.57606262  0.43077654     0.43100
N1560       N  0.95546334  0.55548249  0.07888856    -0.46400
Co1561     Co  0.55693464  0.99934395  0.00304321     0.73900
C1562       C  0.58238661  0.55447291  0.46407944    -0.06700
C1563       C  0.95819472  0.95148250  0.41651977    -0.06300
N1564       N  0.93967937  0.53628720  0.03298233    -0.25800
N1565       N  0.54031879  0.94867487  0.42031052    -0.46600
H1566       H  0.97791549  0.56605234  0.39967382     0.07100
C1567       C  0.53772026  0.55315255  0.08242415    -0.06700
Cl1568     Cl  0.49824052  0.50200644  0.99972466    -0.49700
C1569       C  0.56294378  0.92767772  0.06844489     0.42800
H1570       H  0.89897743  0.56519610  0.02369734     0.07000
N1571       N  0.57819595  0.55146284  0.04630202    -0.46400
C1572       C  0.64887693  0.65362219  0.35697046     0.86700
C1573       C  0.68570296  0.65305649  0.36221400    -0.53500
C1574       C  0.70206673  0.67214457  0.34245140     0.09600
C1575       C  0.68078656  0.68995067  0.31914750     0.20600
C1576       C  0.63934588  0.68707360  0.36024829    -0.54300
C1577       C  0.65617889  0.70588623  0.34057707     0.09700
C1578       C  0.64510427  0.64658948  0.32090788    -0.53800
C1579       C  0.66156405  0.66576649  0.30134342     0.10300
H1580       H  0.69821280  0.63836744  0.37890636     0.14800
H1581       H  0.69433295  0.70543338  0.30309626     0.00500
H1582       H  0.62126354  0.69513076  0.37695203     0.15100
H1583       H  0.63076390  0.62811393  0.31164977     0.14900
C1584       C  0.63850096  0.85017970  0.34825976     0.86700
C1585       C  0.63470897  0.85342335  0.31148134    -0.53500
C1586       C  0.65416904  0.83453781  0.29453868     0.09600
C1587       C  0.67571534  0.81427424  0.31515955     0.20600
C1588       C  0.63306308  0.81638545  0.35500371    -0.54300
C1589       C  0.65247830  0.79781541  0.33761041     0.09700
C1590       C  0.67475553  0.85513875  0.35395224    -0.53800
C1591       C  0.69399233  0.83620966  0.33678577     0.10300
H1592       H  0.61903880  0.86931813  0.29936132     0.14800
H1593       H  0.69151382  0.79897329  0.30108595     0.00500
H1594       H  0.61541044  0.80797206  0.37196353     0.15100
H1595       H  0.68431701  0.87210558  0.37008162     0.14900
C1596       C  0.64226455  0.84325807  0.14147644     0.86700
C1597       C  0.67886107  0.84740005  0.13666909    -0.53500
C1598       C  0.69711782  0.82952076  0.15612614     0.09600
C1599       C  0.67784132  0.80928730  0.17873792     0.20600
C1600       C  0.63652155  0.80913454  0.13732716    -0.54300
C1601       C  0.65527125  0.79156991  0.15679102     0.09700
C1602       C  0.63753176  0.84910329  0.17765257    -0.53800
C1603       C  0.65593376  0.83114057  0.19684402     0.10300
H1604       H  0.68975188  0.86369322  0.12060097     0.14800
H1605       H  0.69295449  0.79486244  0.19460870     0.00500
H1606       H  0.61935675  0.79980268  0.12045669     0.15100
H1607       H  0.62133227  0.86605244  0.18730428     0.14900
C1608       C  0.64919840  0.64658036  0.14872353     0.86700
C1609       C  0.64443623  0.64233268  0.18519737    -0.53500
C1610       C  0.66171634  0.66207349  0.20336692     0.09600
C1611       C  0.68239246  0.68404674  0.18388650     0.20600
C1612       C  0.64148297  0.68007249  0.14241714    -0.54300
C1613       C  0.65887329  0.69948899  0.16073574     0.09700
C1614       C  0.68601811  0.64395558  0.14430088    -0.53800
C1615       C  0.70304277  0.66366486  0.16259853     0.10300
H1616       H  0.62887620  0.62531197  0.19566093     0.14800
H1617       H  0.69650157  0.70001444  0.19879448     0.00500
H1618       H  0.62392775  0.68769745  0.12487022     0.15100
H1619       H  0.69810499  0.62765156  0.12919321     0.14900
C1620       C  0.85465653  0.66069324  0.35710525     0.86700
C1621       C  0.85955241  0.65543250  0.32083832    -0.53500
C1622       C  0.84159402  0.67405033  0.30185676     0.09600
C1623       C  0.82000944  0.69598176  0.32034039     0.20600
C1624       C  0.86108309  0.69460087  0.36200321    -0.54300
C1625       C  0.84281889  0.71284292  0.34281695     0.09700
C1626       C  0.81793950  0.65718044  0.36160154    -0.53800
C1627       C  0.80014776  0.67577115  0.34250074     0.10300
H1628       H  0.87553904  0.63838880  0.31102194     0.14800
H1629       H  0.80528111  0.71099708  0.30473078     0.00500
H1630       H  0.87819434  0.70331006  0.37930500     0.15100
H1631       H  0.80652894  0.64091867  0.37731638     0.14900
C1632       C  0.85644871  0.65393274  0.15010423     0.86700
C1633       C  0.82017946  0.64822127  0.14560057    -0.53500
C1634       C  0.80110022  0.66718565  0.16288952     0.09600
C1635       C  0.81951849  0.68994339  0.18341777     0.20600
C1636       C  0.86099098  0.68767169  0.14234955    -0.54300
C1637       C  0.84175182  0.70631524  0.15988019     0.09700
C1638       C  0.86133054  0.65159278  0.18686360    -0.53800
C1639       C  0.84203454  0.67052822  0.20393709     0.10300
H1640       H  0.81048920  0.63074358  0.13017711     0.14800
H1641       H  0.80381543  0.70527002  0.19756405     0.00500
H1642       H  0.87809068  0.69600494  0.12479113     0.15100
H1643       H  0.87751755  0.63612780  0.19892775     0.14900
C1644       C  0.84875609  0.85105035  0.14462010     0.86700
C1645       C  0.85303766  0.85637701  0.18098242    -0.53500
C1646       C  0.83578404  0.83702307  0.19968765     0.09600
C1647       C  0.81559654  0.81427943  0.18082738     0.20600
C1648       C  0.85690167  0.81746381  0.13961382    -0.54300
C1649       C  0.83945297  0.79841408  0.15850253     0.09700
C1650       C  0.81199642  0.85322112  0.13976338    -0.53800
C1651       C  0.79499557  0.83380321  0.15850623     0.10300
H1652       H  0.86772825  0.87419003  0.19109542     0.14800
H1653       H  0.80145621  0.79862867  0.19616505     0.00500
H1654       H  0.87456500  0.80952398  0.12241194     0.15100
H1655       H  0.80010888  0.86901924  0.12373529     0.14900
C1656       C  0.84570699  0.85792592  0.35178574     0.86700
C1657       C  0.80890239  0.85973226  0.35672995    -0.53500
C1658       C  0.79215972  0.83936178  0.33892169     0.09600
C1659       C  0.81314777  0.81914355  0.31770713     0.20600
C1660       C  0.85446156  0.82474716  0.35855186    -0.54300
C1661       C  0.83740910  0.80465766  0.34077820     0.09700
C1662       C  0.84984447  0.86174562  0.31521105    -0.53800
C1663       C  0.83304494  0.84125733  0.29761173     0.10300
H1664       H  0.79667758  0.87606046  0.37171686     0.14800
H1665       H  0.79936215  0.80259878  0.30321577     0.00500
H1666       H  0.87259312  0.81782642  0.37584073     0.15100
H1667       H  0.86489783  0.87888899  0.30423906     0.14900
C1668       C  0.83532050  0.83878739  0.23421619    -0.13100
C1669       C  0.83436237  0.84014360  0.26307905    -0.14600
C1670       C  0.84270595  0.73876770  0.15736387    -0.13100
C1671       C  0.84218813  0.76598854  0.15706382    -0.14600
C1672       C  0.84225024  0.67268834  0.26734401    -0.13100
C1673       C  0.84233164  0.67165807  0.23846901    -0.14600
C1674       C  0.84369315  0.74532587  0.34397123    -0.13100
C1675       C  0.84182666  0.77247253  0.34325533    -0.14600
C1676       C  0.73762777  0.66466866  0.16238833    -0.13100
C1677       C  0.76654915  0.66563742  0.16236886    -0.14600
C1678       C  0.65454159  0.75902271  0.15681075    -0.13100
C1679       C  0.65581268  0.73184406  0.15819355    -0.14600
C1680       C  0.73163979  0.83084847  0.15667528    -0.13100
C1681       C  0.76050445  0.83214288  0.15755089    -0.14600
C1682       C  0.65463586  0.83389596  0.26007139    -0.13100
C1683       C  0.65515646  0.83288326  0.23124956    -0.14600
C1684       C  0.72858664  0.83716808  0.33833542    -0.13100
C1685       C  0.75753715  0.83800897  0.33894933    -0.14600
C1686       C  0.66102978  0.66341873  0.26685040    -0.13100
C1687       C  0.66095373  0.66224574  0.23795488    -0.14600
C1688       C  0.73660569  0.67433274  0.34257830    -0.13100
C1689       C  0.76553067  0.67544891  0.34248764    -0.14600
C1690       C  0.65236494  0.73821196  0.34070945    -0.13100
C1691       C  0.65138937  0.76539206  0.33991085    -0.14600
C1692       C  0.57870474  0.60608479  0.38849698    -0.13100
C1693       C  0.59147907  0.59307622  0.41646221     0.09000
C1694       C  0.62242771  0.60147294  0.42629300    -0.13100
C1695       C  0.64085016  0.62126003  0.40773331    -0.13100
C1696       C  0.62887945  0.63305504  0.37863617     0.09000
C1697       C  0.59696159  0.62618935  0.37013835    -0.13100
H1698       H  0.55465130  0.60052640  0.38062686     0.13000
H1699       H  0.63274556  0.59245926  0.44813048     0.13000
H1700       H  0.66426611  0.62733275  0.41669319     0.13000
H1701       H  0.58629887  0.63588338  0.34876957     0.13000
C1702       C  0.56941448  0.88902302  0.11223649    -0.13100
C1703       C  0.58156639  0.90368914  0.08497455     0.09000
C1704       C  0.61241768  0.89601537  0.07411783    -0.13100
C1705       C  0.63159465  0.87572018  0.09135994    -0.13100
C1706       C  0.62053992  0.86276353  0.12020111     0.09000
C1707       C  0.58847387  0.86842025  0.12930108    -0.13100
H1708       H  0.54538726  0.89378162  0.12074784     0.13000
H1709       H  0.62210937  0.90625035  0.05260343     0.13000
H1710       H  0.65505419  0.87044496  0.08185119     0.13000
H1711       H  0.57841518  0.85766938  0.15034295     0.13000
C1712       C  0.88759678  0.61172126  0.07632542    -0.13100
C1713       C  0.91303193  0.59450513  0.08886123     0.09000
C1714       C  0.92148369  0.59808825  0.12115158    -0.13100
C1715       C  0.90393130  0.61737942  0.14099673    -0.13100
C1716       C  0.87733216  0.63366928  0.12901952     0.09000
C1717       C  0.87024361  0.63132907  0.09607766    -0.13100
H1718       H  0.88088290  0.60990718  0.05133988     0.13000
H1719       H  0.94138130  0.58549680  0.13133279     0.13000
H1720       H  0.91181961  0.61937081  0.16549627     0.13000
H1721       H  0.85065290  0.64423388  0.08574723     0.13000
C1722       C  0.57579282  0.60379436  0.11720520    -0.13100
C1723       C  0.58838095  0.58785531  0.09101571     0.09000
C1724       C  0.62070211  0.59198094  0.08276561    -0.13100
C1725       C  0.64044367  0.61071115  0.10102417    -0.13100
C1726       C  0.62839217  0.62580031  0.12823724     0.09000
C1727       C  0.59546421  0.62281033  0.13532229    -0.13100
H1728       H  0.55076687  0.60159183  0.12377268     0.13000
H1729       H  0.63092420  0.58042921  0.06230443     0.13000
H1730       H  0.66486334  0.61352434  0.09302032     0.13000
H1731       H  0.58498352  0.63499518  0.15522492     0.13000
C1732       C  0.87490134  0.91290861  0.41695320    -0.13100
C1733       C  0.90698595  0.91739283  0.40791003     0.09000
C1734       C  0.91896032  0.90210047  0.38105084    -0.13100
C1735       C  0.89905879  0.88303303  0.36332757    -0.13100
C1736       C  0.86643690  0.87940003  0.37142589     0.09000
C1737       C  0.85486435  0.89416437  0.39901136    -0.13100
H1738       H  0.86514965  0.92404976  0.43789246     0.13000
H1739       H  0.94374749  0.90467563  0.37378019     0.13000
H1740       H  0.90919905  0.87113011  0.34306338     0.13000
H1741       H  0.83067587  0.89093088  0.40756275     0.13000
C1742       C  0.92726546  0.61512207  0.38732988    -0.13100
C1743       C  0.91459014  0.59973968  0.41391140     0.09000
C1744       C  0.88317932  0.60643150  0.42378212    -0.13100
C1745       C  0.86412181  0.62665356  0.40634978    -0.13100
C1746       C  0.87584890  0.64054619  0.37825240     0.09000
C1747       C  0.90827722  0.63562492  0.37002839    -0.13100
H1748       H  0.95170028  0.61107565  0.37959875     0.13000
H1749       H  0.87301308  0.59556418  0.44472807     0.13000
H1750       H  0.84032279  0.63125631  0.41533080     0.13000
H1751       H  0.91872208  0.64699242  0.34953914     0.13000
C1752       C  0.60648571  0.89088701  0.42248011    -0.13100
C1753       C  0.58201466  0.90920862  0.40987206     0.07900
C1754       C  0.57422172  0.90675455  0.37726970    -0.13100
C1755       C  0.59171449  0.88759129  0.35721458    -0.13100
C1756       C  0.61748295  0.87025953  0.36935413     0.09000
C1757       C  0.62369460  0.87137344  0.40253927    -0.13100
H1758       H  0.61258602  0.89180504  0.44768261     0.13000
H1759       H  0.55502132  0.92022451  0.36701535     0.13000
H1760       H  0.58451874  0.88658715  0.33242852     0.13000
H1761       H  0.64258463  0.85761820  0.41293716     0.13000
C1762       C  0.87530497  0.90165696  0.07428205    -0.13100
C1763       C  0.90555741  0.91156076  0.08456296     0.09000
C1764       C  0.91800008  0.90020978  0.11349838    -0.13100
C1765       C  0.90001726  0.88029029  0.13235291    -0.13100
C1766       C  0.86872979  0.87185416  0.12322252     0.09000
C1767       C  0.85728811  0.88182713  0.09315576    -0.13100
H1768       H  0.86532659  0.90933837  0.05172820     0.13000
H1769       H  0.94160068  0.90689649  0.12172277     0.13000
H1770       H  0.91055162  0.87178101  0.15432443     0.13000
H1771       H  0.83448647  0.87428811  0.08381535     0.13000
C1772       C  0.92382829  0.93411074  0.56572706     0.42700
N1773       N  0.95787700  0.96895310  0.55481453     0.01600
C1774       C  0.96295449  0.56128481  0.92023975    -0.06300
H1775       H  0.97268151  0.94700518  0.89555370     0.07000
C1776       C  0.57645301  0.94427687  0.96059415    -0.06700
Co1777     Co  0.93955089  0.50451024  0.99641224     0.74200
N1778       N  0.96435256  0.97258758  0.93865942    -0.25900
Co1779     Co  0.50157792  0.50393210  0.94107679     0.74100
C1780       C  0.56552149  0.93175748  0.93008717     0.42800
N1781       N  0.55286647  0.96544849  0.53757688     0.01200
N1782       N  0.53560328  0.96940659  0.94261175     0.01300
N1783       N  0.92258381  0.56045008  0.95647526    -0.46700
H1784       H  0.89322113  0.94614682  0.52124655     0.07000
N1785       N  0.94079361  0.97271427  0.95980464     0.01600
N1786       N  0.53878548  0.53523301  0.94482464     0.01300
C1787       C  0.57294595  0.57023944  0.93466984     0.42900
N1788       N  0.52931628  0.96582205  0.55872313    -0.25300
C1789       C  0.91939604  0.55924494  0.53847204    -0.06200
N1790       N  0.95096040  0.94762299  0.57600043    -0.46400
N1791       N  0.54581255  0.55689853  0.92402077    -0.46600
C1792       C  0.92998438  0.57200543  0.56893427     0.42700
N1793       N  0.94352543  0.53844589  0.96181660     0.01500
N1794       N  0.53199334  0.53163145  0.56063695    -0.25300
N1795       N  0.93671121  0.97063314  0.53130953    -0.25800
N1796       N  0.55574464  0.53129072  0.53971327     0.01200
H1797       H  0.52292283  0.55793329  0.60309660     0.07100
H1798       H  0.60324337  0.55761717  0.97913913     0.07100
N1799       N  0.96721274  0.53826964  0.94082071    -0.25900
N1800       N  0.55657427  0.96753980  0.96627061    -0.25500
N1801       N  0.96062825  0.53474076  0.55667493     0.01600
C1802       C  0.92745834  0.93842189  0.92618729     0.43000
C1803       C  0.53352552  0.94272420  0.57923686    -0.06700
N1804       N  0.55988847  0.53325070  0.96835705    -0.25500
H1805       H  0.59680371  0.93791414  0.97527249     0.07100
N1806       N  0.91808511  0.95287349  0.95306619    -0.46700
H1807       H  0.51857075  0.93794707  0.59980483     0.07100
C1808       C  0.56838757  0.56632423  0.57281575     0.42800
C1809       C  0.91423671  0.94943551  0.53604967    -0.06200
Co1810     Co  0.99489785  0.00026375  0.55836646     0.73800
N1811       N  0.57362529  0.94324877  0.54270692    -0.46400
C1812       C  0.93332527  0.57606262  0.93077656     0.43100
N1813       N  0.95546327  0.55548249  0.57888860    -0.46400
Co1814     Co  0.55693469  0.99934396  0.50304319     0.73900
C1815       C  0.58238664  0.55447287  0.96407947    -0.06700
C1816       C  0.95819480  0.95148251  0.91651979    -0.06300
N1817       N  0.93967933  0.53628721  0.53298234    -0.25800
N1818       N  0.54031875  0.94867493  0.92031047    -0.46600
H1819       H  0.97791550  0.56605235  0.89967386     0.07100
C1820       C  0.53772019  0.55315267  0.58242412    -0.06700
Cl1821     Cl  0.49824051  0.50200648  0.49972466    -0.49700
C1822       C  0.56294387  0.92767783  0.56844498     0.42800
H1823       H  0.89897734  0.56519602  0.52369741     0.07000
N1824       N  0.57819589  0.55146296  0.54630200    -0.46400
C1825       C  0.64887690  0.65362226  0.85697053     0.86700
C1826       C  0.68570294  0.65305659  0.86221408    -0.53500
C1827       C  0.70206670  0.67214464  0.84245144     0.09600
C1828       C  0.68078651  0.68995070  0.81914751     0.20600
C1829       C  0.63934583  0.68707367  0.86024831    -0.54300
C1830       C  0.65617883  0.70588628  0.84057705     0.09700
C1831       C  0.64510423  0.64658950  0.82090797    -0.53800
C1832       C  0.66156401  0.66576648  0.80134347     0.10300
H1833       H  0.69821279  0.63836756  0.87890646     0.14800
H1834       H  0.69433288  0.70543339  0.80309624     0.00500
H1835       H  0.62126348  0.69513086  0.87695204     0.15100
H1836       H  0.63076387  0.62811395  0.81164990     0.14900
C1837       C  0.63850102  0.85017976  0.84825979     0.86700
C1838       C  0.63470907  0.85342343  0.81148137    -0.53500
C1839       C  0.65416914  0.83453789  0.79453872     0.09600
C1840       C  0.67571541  0.81427430  0.81515960     0.20600
C1841       C  0.63306311  0.81638551  0.85500372    -0.54300
C1842       C  0.65247834  0.79781547  0.83761042     0.09700
C1843       C  0.67475559  0.85513879  0.85395230    -0.53800
C1844       C  0.69399240  0.83620970  0.83678584     0.10300
H1845       H  0.61903892  0.86931821  0.79936136     0.14800
H1846       H  0.69151390  0.79897335  0.80108599     0.00500
H1847       H  0.61541045  0.80797212  0.87196351     0.15100
H1848       H  0.68431706  0.87210562  0.87008168     0.14900
C1849       C  0.64226459  0.84325814  0.64147649     0.86700
C1850       C  0.67886111  0.84740008  0.63666910    -0.53500
C1851       C  0.69711786  0.82952077  0.65612614     0.09600
C1852       C  0.67784135  0.80928734  0.67873794     0.20600
C1853       C  0.63652155  0.80913462  0.63732721    -0.54300
C1854       C  0.65527124  0.79156997  0.65679106     0.09700
C1855       C  0.63753184  0.84910337  0.67765261    -0.53800
C1856       C  0.65593383  0.83114063  0.69684406     0.10300
H1857       H  0.68975192  0.86369322  0.62060098     0.14800
H1858       H  0.69295452  0.79486246  0.69460871     0.00500
H1859       H  0.61935672  0.79980277  0.62045676     0.15100
H1860       H  0.62133239  0.86605253  0.68730433     0.14900
C1861       C  0.64919832  0.64658043  0.64872357     0.86700
C1862       C  0.64443613  0.64233275  0.68519739    -0.53500
C1863       C  0.66171621  0.66207355  0.70336697     0.09600
C1864       C  0.68239233  0.68404681  0.68388657     0.20600
C1865       C  0.64148289  0.68007256  0.64241719    -0.54300
C1866       C  0.65887318  0.69948906  0.66073580     0.09700
C1867       C  0.68601805  0.64395567  0.64430094    -0.53800
C1868       C  0.70304268  0.66366496  0.66259862     0.10300
H1869       H  0.62887610  0.62531202  0.69566093     0.14800
H1870       H  0.69650142  0.70001451  0.69879458     0.00500
H1871       H  0.62392770  0.68769752  0.62487025     0.15100
H1872       H  0.69810495  0.62765168  0.62919326     0.14900
C1873       C  0.85465651  0.66069326  0.85710531     0.86700
C1874       C  0.85955240  0.65543250  0.82083837    -0.53500
C1875       C  0.84159402  0.67405031  0.80185680     0.09600
C1876       C  0.82000942  0.69598176  0.82034040     0.20600
C1877       C  0.86108306  0.69460090  0.86200324    -0.54300
C1878       C  0.84281887  0.71284293  0.84281696     0.09700
C1879       C  0.81793948  0.65718047  0.86160159    -0.53800
C1880       C  0.80014774  0.67577116  0.84250077     0.10300
H1881       H  0.87553903  0.63838880  0.81102202     0.14800
H1882       H  0.80528110  0.71099706  0.80473077     0.00500
H1883       H  0.87819430  0.70331010  0.87930503     0.15100
H1884       H  0.80652893  0.64091872  0.87731645     0.14900
C1885       C  0.85644861  0.65393272  0.65010426     0.86700
C1886       C  0.82017934  0.64822132  0.64560063    -0.53500
C1887       C  0.80110015  0.66718573  0.66288959     0.09600
C1888       C  0.81951849  0.68994343  0.68341784     0.20600
C1889       C  0.86099094  0.68767167  0.64234959    -0.54300
C1890       C  0.84175184  0.70631525  0.65988025     0.09700
C1891       C  0.86133046  0.65159274  0.68686363    -0.53800
C1892       C  0.84203451  0.67052821  0.70393714     0.10300
H1893       H  0.81048904  0.63074365  0.63017718     0.14800
H1894       H  0.80381547  0.70527008  0.69756414     0.00500
H1895       H  0.87809063  0.69600489  0.62479116     0.15100
H1896       H  0.87751744  0.63612771  0.69892777     0.14900
C1897       C  0.84875612  0.85105036  0.64462006     0.86700
C1898       C  0.85303769  0.85637706  0.68098237    -0.53500
C1899       C  0.83578407  0.83702312  0.69968762     0.09600
C1900       C  0.81559659  0.81427945  0.68082737     0.20600
C1901       C  0.85690172  0.81746382  0.63961382    -0.54300
C1902       C  0.83945303  0.79841410  0.65850254     0.09700
C1903       C  0.81199645  0.85322111  0.63976333    -0.53800
C1904       C  0.79499561  0.83380321  0.65850619     0.10300
H1905       H  0.86772827  0.87419009  0.69109535     0.14800
H1906       H  0.80145627  0.79862871  0.69616505     0.00500
H1907       H  0.87456506  0.80952398  0.62241195     0.15100
H1908       H  0.80010890  0.86901921  0.62373522     0.14900
C1909       C  0.84570709  0.85792595  0.85178570     0.86700
C1910       C  0.80890249  0.85973233  0.85672992    -0.53500
C1911       C  0.79215979  0.83936187  0.83892167     0.09600
C1912       C  0.81314781  0.81914362  0.81770709     0.20600
C1913       C  0.85446163  0.82474718  0.85855181    -0.54300
C1914       C  0.83740913  0.80465770  0.84077815     0.09700
C1915       C  0.84984456  0.86174566  0.81521101    -0.53800
C1916       C  0.83304500  0.84125739  0.79761169     0.10300
H1917       H  0.79667771  0.87606054  0.87171686     0.14800
H1918       H  0.79936217  0.80259887  0.80321573     0.00500
H1919       H  0.87259319  0.81782642  0.87584067     0.15100
H1920       H  0.86489793  0.87888903  0.80423901     0.14900
C1921       C  0.83532055  0.83878747  0.73421615    -0.13100
C1922       C  0.83436242  0.84014367  0.76307901    -0.14600
C1923       C  0.84270601  0.73876771  0.65736392    -0.13100
C1924       C  0.84218820  0.76598856  0.65706387    -0.14600
C1925       C  0.84225024  0.67268830  0.76734406    -0.13100
C1926       C  0.84233163  0.67165805  0.73846906    -0.14600
C1927       C  0.84369312  0.74532589  0.84397121    -0.13100
C1928       C  0.84182664  0.77247255  0.84325528    -0.14600
C1929       C  0.73762769  0.66466878  0.66238843    -0.13100
C1930       C  0.76654907  0.66563755  0.66236896    -0.14600
C1931       C  0.65454153  0.75902278  0.65681080    -0.13100
C1932       C  0.65581259  0.73184413  0.65819360    -0.14600
C1933       C  0.73163983  0.83084847  0.65667527    -0.13100
C1934       C  0.76050449  0.83214287  0.65755087    -0.14600
C1935       C  0.65463597  0.83389604  0.76007143    -0.13100
C1936       C  0.65515656  0.83288333  0.73124960    -0.14600
C1937       C  0.72858671  0.83716815  0.83833548    -0.13100
C1938       C  0.75753722  0.83800906  0.83894936    -0.14600
C1939       C  0.66102969  0.66341872  0.76685045    -0.13100
C1940       C  0.66095361  0.66224576  0.73795493    -0.14600
C1941       C  0.73660566  0.67433280  0.84257832    -0.13100
C1942       C  0.76553064  0.67544894  0.84248767    -0.14600
C1943       C  0.65236489  0.73821201  0.84070940    -0.13100
C1944       C  0.65138936  0.76539212  0.83991081    -0.14600
C1945       C  0.57870468  0.60608492  0.88849713    -0.13100
C1946       C  0.59147906  0.59307625  0.91646229     0.09000
C1947       C  0.62242773  0.60147291  0.92629303    -0.13100
C1948       C  0.64085016  0.62126002  0.90773335    -0.13100
C1949       C  0.62887941  0.63305512  0.87863627     0.09000
C1950       C  0.59696152  0.62618950  0.87013851    -0.13100
H1951       H  0.55465122  0.60052658  0.88062704     0.13000
H1952       H  0.63274562  0.59245915  0.94813047     0.13000
H1953       H  0.66426614  0.62733267  0.91669319     0.13000
H1954       H  0.58629878  0.63588359  0.84876976     0.13000
C1955       C  0.56941458  0.88902317  0.61223659    -0.13100
C1956       C  0.58156647  0.90368924  0.58497462     0.09000
C1957       C  0.61241772  0.89601540  0.57411786    -0.13100
C1958       C  0.63159469  0.87572019  0.59135996    -0.13100
C1959       C  0.62053998  0.86276361  0.62020116     0.09000
C1960       C  0.58847395  0.86842038  0.62930117    -0.13100
H1961       H  0.54538737  0.89378181  0.62074797     0.13000
H1962       H  0.62210940  0.90625035  0.55260344     0.13000
H1963       H  0.65505422  0.87044492  0.58185117     0.13000
H1964       H  0.57841527  0.85766954  0.65034307     0.13000
C1965       C  0.88759655  0.61172109  0.57632549    -0.13100
C1966       C  0.91303178  0.59450505  0.58886129     0.09000
C1967       C  0.92148363  0.59808827  0.62115160    -0.13100
C1968       C  0.90393125  0.61737947  0.64099674    -0.13100
C1969       C  0.87733203  0.63366923  0.62901955     0.09000
C1970       C  0.87024339  0.63132891  0.59607773    -0.13100
H1971       H  0.88088260  0.60990693  0.55133997     0.13000
H1972       H  0.94138131  0.58549690  0.63133279     0.13000
H1973       H  0.91181964  0.61937098  0.66549627     0.13000
H1974       H  0.85065262  0.64423365  0.58574731     0.13000
C1975       C  0.57579273  0.60379452  0.61720514    -0.13100
C1976       C  0.58838088  0.58785541  0.59101569     0.09000
C1977       C  0.62070208  0.59198096  0.58276567    -0.13100
C1978       C  0.64044364  0.61071115  0.60102425    -0.13100
C1979       C  0.62839210  0.62580038  0.62823726     0.09000
C1980       C  0.59546412  0.62281048  0.63532225    -0.13100
H1981       H  0.55076675  0.60159205  0.62377256     0.13000
H1982       H  0.63092420  0.58042917  0.56230453     0.13000
H1983       H  0.66486335  0.61352426  0.59302046     0.13000
H1984       H  0.58498341  0.63499537  0.65522484     0.13000
C1985       C  0.87490150  0.91290847  0.91695328    -0.13100
C1986       C  0.90698606  0.91739281  0.90791002     0.09000
C1987       C  0.91896040  0.90210058  0.88105073    -0.13100
C1988       C  0.89905887  0.88303314  0.86332746    -0.13100
C1989       C  0.86643701  0.87940004  0.87142586     0.09000
C1990       C  0.85486450  0.89416423  0.89901144    -0.13100
H1991       H  0.86514984  0.92404951  0.93789261     0.13000
H1992       H  0.94374754  0.90467583  0.87378002     0.13000
H1993       H  0.90919910  0.87113032  0.84306321     0.13000
H1994       H  0.83067604  0.89093062  0.90756290     0.13000
C1995       C  0.92726544  0.61512207  0.88732990    -0.13100
C1996       C  0.91459014  0.59973969  0.91391144     0.09000
C1997       C  0.88317934  0.60643151  0.92378218    -0.13100
C1998       C  0.86412183  0.62665358  0.90634984    -0.13100
C1999       C  0.87584890  0.64054622  0.87825246     0.09000
C2000       C  0.90827720  0.63562494  0.87002843    -0.13100
H2001       H  0.95170023  0.61107564  0.87959877     0.13000
H2002       H  0.87301310  0.59556420  0.94472815     0.13000
H2003       H  0.84032283  0.63125633  0.91533086     0.13000
H2004       H  0.91872206  0.64699243  0.84953917     0.13000
C2005       C  0.60648575  0.89088713  0.92248009    -0.13100
C2006       C  0.58201463  0.90920867  0.90987202     0.07900
C2007       C  0.57422165  0.90675453  0.87726968    -0.13100
C2008       C  0.59171446  0.88759126  0.85721459    -0.13100
C2009       C  0.61748299  0.87025958  0.86935414     0.09000
C2010       C  0.62369466  0.87137357  0.90253927    -0.13100
H2011       H  0.61258607  0.89180522  0.94768257     0.13000
H2012       H  0.55502119  0.92022443  0.86701531     0.13000
H2013       H  0.58451869  0.88658703  0.83242857     0.13000
H2014       H  0.64258474  0.85761839  0.91293718     0.13000
C2015       C  0.87530499  0.90165698  0.57428201    -0.13100
C2016       C  0.90555744  0.91156076  0.58456292     0.09000
C2017       C  0.91800013  0.90020975  0.61349832    -0.13100
C2018       C  0.90001731  0.88029026  0.63235285    -0.13100
C2019       C  0.86872982  0.87185416  0.62322247     0.09000
C2020       C  0.85728813  0.88182716  0.59315572    -0.13100
H2021       H  0.86532659  0.90933841  0.55172816     0.13000
H2022       H  0.94160073  0.90689645  0.62172269     0.13000
H2023       H  0.91055168  0.87178096  0.65432436     0.13000
H2024       H  0.83448650  0.87428816  0.58381532     0.13000
loop_ 
_geom_bond_atom_site_label_1 
_geom_bond_atom_site_label_2 
_geom_bond_distance 
_geom_bond_site_symmetry_2 
_ccdc_geom_bond_type 
C1           N19   1.350       .  A
C1           C38   1.465       .  S
C1          C245   1.481       .  S
N2           N19   1.324       .  A
N2           N24   1.320       .  A
N2          Co39   2.082       .  S
C3           N28   1.342       .  A
C3           C41   1.463       .  S
C3           H48   1.081       .  S
H4           C45   1.081       .  S
C5           N29   1.341       .  A
C5            C9   1.463       .  S
C5           H34   1.081       .  S
Co6          N22   2.088       .  S
Co6         N783   2.091   1_545  S
Co6         N520   2.081   1_545  S
Co6         N299   2.079       .  S
Co6       Cl1315   2.450       .  S
N7           C45   1.341       .  A
N7           N14   1.320       .  A
N7        Co1526   2.086       .  S
Co8          N15   2.088       .  S
Co8        N1525   2.086   1_445  S
Co8         N517   2.082   1_545  S
Co8        N1040   2.085   1_455  S
Co8        Cl303   2.452   1_455  S
C9           N47   1.350       .  A
C9          C235   1.477       .  S
N10          N17   1.319       .  A
N10          N40   1.324       .  A
N10         Co43   2.085       .  S
N11          N29   1.320       .  A
N11          N47   1.323       .  A
N11        Co514   2.082       .  S
N12          C41   1.351       .  A
N12          N22   1.324       .  A
H13          C38   1.081       .  S
N14          N35   1.323       .  A
N14        Co512   2.081       .  S
N15          N33   1.320       .  A
N15          N20   1.325       .  A
C16          N20   1.352       .  A
C16          C44   1.463       .  S
C16         C175   1.482       .  S
N17          C32   1.343       .  A
N17       Co1051   2.090   1_455  S
C18          N46   1.340       .  A
C18          C21   1.461       .  S
C18          H52   1.081       .  S
C21          N42   1.351       .  A
C21         C195   1.478       .  S
N22          N28   1.319       .  A
N23          C49   1.341       .  A
N23          N25   1.320       .  A
N23       Co1557   2.083   1_455  S
N24          C38   1.342       .  A
N24        Co765   2.091   1_554  S
N25          N53   1.324       .  A
N25        Co549   2.087   1_545  S
H26          C49   1.081       .  S
H27          C44   1.081       .  S
N28       Co1020   2.085       .  S
N29        Co296   2.086       .  S
N30          N42   1.324       .  A
N30          N46   1.319       .  A
N30        Co545   2.088       .  S
C31          N35   1.350       .  A
C31          C45   1.462       .  S
C31         C215   1.478       .  S
C32          C51   1.464       .  S
C32          H36   1.081       .  S
N33          C44   1.341       .  A
N33        Co802   2.086   1_545  S
C37          N53   1.352       .  A
C37          C49   1.461       .  S
C37         C205   1.479       .  S
Co39       N1029   2.090       .  S
Co39       N1541   2.083       .  S
Co39        N536   2.088       .  S
Co39      Cl1568   2.451   1_554  S
N40          C51   1.351       .  A
C41         C225   1.481       .  S
Co43        N531   2.087       .  S
Co43        N282   2.086   1_554  S
Co43        N792   2.086   1_554  S
Co43       Cl556   2.450   1_454  S
N46        Co259   2.079   1_554  S
Cl50      Co1271   2.450       .  S
Cl50       Co261   2.452   1_655  S
Cl50      Co1557   2.451   1_556  S
Cl50       Co549   2.450   1_646  S
C51         C185   1.482       .  S
C54          C55   1.549       .  S
C54          C60   1.545       .  S
C54          C58   1.539       .  S
C54         C178   1.530       .  S
C55          H62   1.084       .  S
C55          C56   1.363       .  D
C56          C57   1.530       .  S
C56         C170   1.442       .  S
C57          C61   1.532       .  S
C57          C59   1.532       .  S
C57          H63   1.112       .  S
C58          H64   1.086       .  S
C58          C59   1.363       .  D
C59         C172   1.440       .  S
C60          H65   1.086       .  S
C60          C61   1.363       .  D
C61         C168   1.443       .  S
C66          C67   1.548       .  S
C66          C72   1.544       .  S
C66          C70   1.540       .  S
C66         C238   1.527       .  S
C67          H74   1.082       .  S
C67          C68   1.362       .  D
C68          C69   1.530       .  S
C68         C164   1.438       .  S
C69          C73   1.532       .  S
C69          C71   1.532       .  S
C69          H75   1.112       .  S
C70          H76   1.086       .  S
C70          C71   1.363       .  D
C71         C173   1.440       .  S
C72          H77   1.086       .  S
C72          C73   1.363       .  D
C73         C166   1.443       .  S
C78          C79   1.548       .  S
C78          C84   1.545       .  S
C78          C82   1.541       .  S
C78         C188   1.530       .  S
C79          H86   1.084       .  S
C79          C80   1.362       .  D
C80          C81   1.529       .  S
C80         C162   1.439       .  S
C81          C85   1.529       .  S
C81          C83   1.531       .  S
C81          H87   1.112       .  S
C82          H88   1.086       .  S
C82          C83   1.366       .  D
C83         C160   1.442       .  S
C84          H89   1.086       .  S
C84          C85   1.361       .  D
C85         C165   1.438       .  S
C90          C91   1.546       .  S
C90          C96   1.548       .  S
C90          C94   1.539       .  S
C90         C208   1.529       .  S
C91          H98   1.086       .  S
C91          C92   1.365       .  D
C92          C93   1.533       .  S
C92         C169   1.443       .  S
C93          C97   1.531       .  S
C93          C95   1.533       .  S
C93          H99   1.112       .  S
C94         H100   1.087       .  S
C94          C95   1.362       .  D
C95         C161   1.442       .  S
C96         H101   1.083       .  S
C96          C97   1.362       .  D
C97         C158   1.441       .  S
C102        C103   1.545       .  S
C102        C108   1.549       .  S
C102        C106   1.540       .  S
C102        C228   1.531       .  S
C103        H110   1.086       .  S
C103        C104   1.363       .  D
C104        C105   1.532       .  S
C104        C154   1.441       .  S
C105        C109   1.530       .  S
C105        C107   1.532       .  S
C105        H111   1.112       .  S
C106        H112   1.086       .  S
C106        C107   1.365       .  D
C107        C156   1.440       .  S
C108        H113   1.083       .  S
C108        C109   1.361       .  D
C109        C171   1.441       .  S
C114        C115   1.543       .  S
C114        C120   1.550       .  S
C114        C118   1.540       .  S
C114        C198   1.528       .  S
C115        H122   1.086       .  S
C115        C116   1.363       .  D
C116        C117   1.532       .  S
C116        C159   1.441       .  S
C117        C121   1.530       .  S
C117        C119   1.532       .  S
C117        H123   1.112       .  S
C118        H124   1.086       .  S
C118        C119   1.363       .  D
C119        C152   1.441       .  S
C120        H125   1.082       .  S
C120        C121   1.362       .  D
C121        C155   1.442       .  S
C126        C127   1.546       .  S
C126        C132   1.546       .  S
C126        C130   1.540       .  S
C126        C248   1.529       .  S
C127        H134   1.086       .  S
C127        C128   1.364       .  D
C128        C129   1.533       .  S
C128        C150   1.443       .  S
C129        C133   1.530       .  S
C129        C131   1.533       .  S
C129        H135   1.112       .  S
C130        H136   1.086       .  S
C130        C131   1.364       .  D
C131        C153   1.442       .  S
C132        H137   1.085       .  S
C132        C133   1.361       .  D
C133        C163   1.439       .  S
C138        C139   1.548       .  S
C138        C144   1.544       .  S
C138        C142   1.538       .  S
C138        C218   1.526       .  S
C139        H146   1.083       .  S
C139        C140   1.363       .  D
C140        C141   1.533       .  S
C140        C167   1.443       .  S
C141        C145   1.533       .  S
C141        C143   1.533       .  S
C141        H147   1.112       .  S
C142        H148   1.087       .  S
C142        C143   1.361       .  D
C143        C157   1.440       .  S
C144        H149   1.086       .  S
C144        C145   1.363       .  D
C145        C151   1.443       .  S
C150        C151   1.206       .  T
C152        C153   1.206       .  T
C154        C155   1.206       .  T
C156        C157   1.205       .  T
C158        C159   1.205       .  T
C160        C161   1.206       .  T
C162        C163   1.204       .  T
C164        C165   1.204       .  T
C166        C167   1.206       .  T
C168        C169   1.207       .  T
C170        C171   1.206       .  T
C172        C173   1.205       .  T
C174        H180   1.083       .  S
C174        C175   1.403       .  A
C174        C179   1.399       .  A
C175        C176   1.404       .  A
C176        H181   1.082       .  S
C176        C177   1.399       .  A
C177        H182   1.079       .  S
C177        C178   1.410       .  A
C178        C179   1.410       .  A
C179        H183   1.083       .  S
C184        H190   1.082       .  S
C184        C185   1.403       .  A
C184        C189   1.400       .  A
C185        C186   1.403       .  A
C186        H191   1.083       .  S
C186        C187   1.398       .  A
C187        H192   1.080       .  S
C187        C188   1.410       .  A
C188        C189   1.410       .  A
C189        H193   1.083       .  S
C194        H200   1.082       .  S
C194        C195   1.403       .  A
C194        C199   1.399       .  A
C195        C196   1.402       .  A
C196        H201   1.083       .  S
C196        C197   1.397       .  A
C197        H202   1.077       .  S
C197        C198   1.410       .  A
C198        C199   1.410       .  A
C199        H203   1.083       .  S
C204        H210   1.082       .  S
C204        C205   1.403       .  A
C204        C209   1.399       .  A
C205        C206   1.402       .  A
C206        H211   1.083       .  S
C206        C207   1.397       .  A
C207        H212   1.078       .  S
C207        C208   1.411       .  A
C208        C209   1.409       .  A
C209        H213   1.083       .  S
C214        H220   1.083       .  S
C214        C215   1.403       .  A
C214        C219   1.397       .  A
C215        C216   1.402       .  A
C216        H221   1.082       .  S
C216        C217   1.398       .  A
C217        H222   1.083       .  S
C217        C218   1.409       .  A
C218        C219   1.410       .  A
C219        H223   1.078       .  S
C224        H230   1.082       .  S
C224        C225   1.404       .  A
C224        C229   1.401       .  A
C225        C226   1.402       .  A
C226        H231   1.083       .  S
C226        C227   1.397       .  A
C227        H232   1.079       .  S
C227        C228   1.410       .  A
C228        C229   1.410       .  A
C229        H233   1.083       .  S
C234        H240   1.082       .  S
C234        C235   1.402       .  A
C234        C239   1.398       .  A
C235        C236   1.403       .  A
C236        H241   1.083       .  S
C236        C237   1.397       .  A
C237        H242   1.077       .  S
C237        C238   1.410       .  A
C238        C239   1.409       .  A
C239        H243   1.083       .  S
C244        H250   1.082       .  S
C244        C245   1.402       .  A
C244        C249   1.398       .  A
C245        C246   1.404       .  A
C246        H251   1.083       .  S
C246        C247   1.399       .  A
C247        H252   1.082       .  S
C247        C248   1.409       .  A
C248        C249   1.411       .  A
C249        H253   1.080       .  S
C254        N272   1.350       .  A
C254        C291   1.465       .  S
C254        C498   1.481       .  S
N255        N272   1.324       .  A
N255        N277   1.320       .  A
N255       Co292   2.082       .  S
C256        N281   1.342       .  A
C256        C294   1.463       .  S
C256        H301   1.081       .  S
H257        C298   1.081       .  S
C258        N282   1.341       .  A
C258        C262   1.463       .  S
C258        H287   1.081       .  S
Co259       N530   2.091   1_546  S
Co259       N773   2.081   1_545  S
Co259       N275   2.088       .  S
Co259     Cl1062   2.450       .  S
N260        C298   1.341       .  A
N260        N267   1.320       .  A
N260      Co1779   2.086       .  S
Co261      N1778   2.086   1_445  S
Co261       N770   2.082   1_545  S
Co261      N1293   2.085   1_455  S
Co261       N268   2.088       .  S
C262        N300   1.350       .  A
C262        C488   1.477       .  S
N263        N270   1.319       .  A
N263        N293   1.324       .  A
N263       Co296   2.085       .  S
N264        N282   1.320       .  A
N264        N300   1.323       .  A
N264       Co767   2.082       .  S
N265        C294   1.351       .  A
N265        N275   1.324       .  A
H266        C291   1.081       .  S
N267        N288   1.323       .  A
N267       Co765   2.081       .  S
N268        N286   1.320       .  A
N268        N273   1.325       .  A
C269        N273   1.352       .  A
C269        C297   1.463       .  S
C269        C428   1.482       .  S
N270        C285   1.343       .  A
N270      Co1304   2.090   1_455  S
C271        N299   1.340       .  A
C271        C274   1.461       .  S
C271        H305   1.081       .  S
C274        N295   1.351       .  A
C274        C448   1.478       .  S
N275        N281   1.319       .  A
N276        C302   1.341       .  A
N276        N278   1.320       .  A
N276      Co1810   2.083   1_455  S
N277        C291   1.342       .  A
N277       Co512   2.091       .  S
N278        N306   1.324       .  A
N278       Co802   2.087   1_545  S
H279        C302   1.081       .  S
H280        C297   1.081       .  S
N281      Co1273   2.085       .  S
N283        N295   1.324       .  A
N283        N299   1.319       .  A
N283       Co798   2.088       .  S
C284        N288   1.350       .  A
C284        C298   1.462       .  S
C284        C468   1.478       .  S
C285        C304   1.464       .  S
C285        H289   1.081       .  S
N286        C297   1.341       .  A
N286       Co549   2.086   1_546  S
C290        N306   1.352       .  A
C290        C302   1.461       .  S
C290        C458   1.479       .  S
Co292      N1282   2.090       .  S
Co292      N1794   2.083       .  S
Co292       N789   2.088       .  S
Co292     Cl1821   2.451       .  S
N293        C304   1.351       .  A
C294        C478   1.481       .  S
Co296       N784   2.087       .  S
Co296       N539   2.086       .  S
Co296      Cl809   2.450   1_455  S
Cl303     Co1018   2.450       .  S
Cl303     Co1810   2.451       .  S
Cl303      Co802   2.450   1_645  S
C304        C438   1.482       .  S
C307        C308   1.549       .  S
C307        C313   1.545       .  S
C307        C311   1.539       .  S
C307        C431   1.530       .  S
C308        H315   1.084       .  S
C308        C309   1.363       .  D
C309        C310   1.530       .  S
C309        C423   1.442       .  S
C310        C314   1.532       .  S
C310        C312   1.532       .  S
C310        H316   1.112       .  S
C311        H317   1.086       .  S
C311        C312   1.363       .  D
C312        C425   1.440       .  S
C313        H318   1.086       .  S
C313        C314   1.363       .  D
C314        C421   1.443       .  S
C319        C320   1.548       .  S
C319        C325   1.544       .  S
C319        C323   1.540       .  S
C319        C491   1.527       .  S
C320        H327   1.082       .  S
C320        C321   1.362       .  D
C321        C322   1.530       .  S
C321        C417   1.438       .  S
C322        C326   1.532       .  S
C322        C324   1.532       .  S
C322        H328   1.112       .  S
C323        H329   1.086       .  S
C323        C324   1.363       .  D
C324        C426   1.440       .  S
C325        H330   1.086       .  S
C325        C326   1.363       .  D
C326        C419   1.443       .  S
C331        C332   1.548       .  S
C331        C337   1.545       .  S
C331        C335   1.541       .  S
C331        C441   1.530       .  S
C332        H339   1.084       .  S
C332        C333   1.362       .  D
C333        C334   1.529       .  S
C333        C415   1.439       .  S
C334        C338   1.529       .  S
C334        C336   1.531       .  S
C334        H340   1.112       .  S
C335        H341   1.086       .  S
C335        C336   1.366       .  D
C336        C413   1.442       .  S
C337        H342   1.086       .  S
C337        C338   1.361       .  D
C338        C418   1.438       .  S
C343        C344   1.546       .  S
C343        C349   1.548       .  S
C343        C347   1.539       .  S
C343        C461   1.529       .  S
C344        H351   1.086       .  S
C344        C345   1.365       .  D
C345        C346   1.533       .  S
C345        C422   1.443       .  S
C346        C350   1.531       .  S
C346        C348   1.533       .  S
C346        H352   1.112       .  S
C347        H353   1.087       .  S
C347        C348   1.362       .  D
C348        C414   1.442       .  S
C349        H354   1.083       .  S
C349        C350   1.362       .  D
C350        C411   1.441       .  S
C355        C356   1.545       .  S
C355        C361   1.549       .  S
C355        C359   1.540       .  S
C355        C481   1.531       .  S
C356        H363   1.086       .  S
C356        C357   1.363       .  D
C357        C358   1.532       .  S
C357        C407   1.441       .  S
C358        C362   1.530       .  S
C358        C360   1.532       .  S
C358        H364   1.112       .  S
C359        H365   1.086       .  S
C359        C360   1.365       .  D
C360        C409   1.440       .  S
C361        H366   1.083       .  S
C361        C362   1.361       .  D
C362        C424   1.441       .  S
C367        C368   1.543       .  S
C367        C373   1.550       .  S
C367        C371   1.540       .  S
C367        C451   1.528       .  S
C368        H375   1.086       .  S
C368        C369   1.363       .  D
C369        C370   1.532       .  S
C369        C412   1.441       .  S
C370        C374   1.530       .  S
C370        C372   1.532       .  S
C370        H376   1.112       .  S
C371        H377   1.086       .  S
C371        C372   1.363       .  D
C372        C405   1.441       .  S
C373        H378   1.082       .  S
C373        C374   1.362       .  D
C374        C408   1.442       .  S
C379        C380   1.546       .  S
C379        C385   1.546       .  S
C379        C383   1.540       .  S
C379        C501   1.529       .  S
C380        H387   1.086       .  S
C380        C381   1.364       .  D
C381        C382   1.533       .  S
C381        C403   1.443       .  S
C382        C386   1.530       .  S
C382        C384   1.533       .  S
C382        H388   1.112       .  S
C383        H389   1.086       .  S
C383        C384   1.364       .  D
C384        C406   1.442       .  S
C385        H390   1.085       .  S
C385        C386   1.361       .  D
C386        C416   1.439       .  S
C391        C392   1.548       .  S
C391        C397   1.544       .  S
C391        C395   1.538       .  S
C391        C471   1.526       .  S
C392        H399   1.083       .  S
C392        C393   1.363       .  D
C393        C394   1.533       .  S
C393        C420   1.443       .  S
C394        C398   1.533       .  S
C394        C396   1.533       .  S
C394        H400   1.112       .  S
C395        H401   1.087       .  S
C395        C396   1.361       .  D
C396        C410   1.440       .  S
C397        H402   1.086       .  S
C397        C398   1.363       .  D
C398        C404   1.443       .  S
C403        C404   1.206       .  T
C405        C406   1.206       .  T
C407        C408   1.206       .  T
C409        C410   1.205       .  T
C411        C412   1.205       .  T
C413        C414   1.206       .  T
C415        C416   1.204       .  T
C417        C418   1.204       .  T
C419        C420   1.206       .  T
C421        C422   1.207       .  T
C423        C424   1.206       .  T
C425        C426   1.205       .  T
C427        H433   1.083       .  S
C427        C428   1.403       .  A
C427        C432   1.399       .  A
C428        C429   1.404       .  A
C429        H434   1.082       .  S
C429        C430   1.399       .  A
C430        H435   1.079       .  S
C430        C431   1.410       .  A
C431        C432   1.410       .  A
C432        H436   1.083       .  S
C437        H443   1.082       .  S
C437        C438   1.403       .  A
C437        C442   1.400       .  A
C438        C439   1.403       .  A
C439        H444   1.083       .  S
C439        C440   1.398       .  A
C440        H445   1.080       .  S
C440        C441   1.410       .  A
C441        C442   1.410       .  A
C442        H446   1.083       .  S
C447        H453   1.082       .  S
C447        C448   1.403       .  A
C447        C452   1.399       .  A
C448        C449   1.402       .  A
C449        H454   1.083       .  S
C449        C450   1.397       .  A
C450        H455   1.077       .  S
C450        C451   1.410       .  A
C451        C452   1.410       .  A
C452        H456   1.083       .  S
C457        H463   1.082       .  S
C457        C458   1.403       .  A
C457        C462   1.399       .  A
C458        C459   1.402       .  A
C459        H464   1.083       .  S
C459        C460   1.397       .  A
C460        H465   1.078       .  S
C460        C461   1.411       .  A
C461        C462   1.409       .  A
C462        H466   1.083       .  S
C467        H473   1.083       .  S
C467        C468   1.403       .  A
C467        C472   1.397       .  A
C468        C469   1.402       .  A
C469        H474   1.082       .  S
C469        C470   1.398       .  A
C470        H475   1.083       .  S
C470        C471   1.409       .  A
C471        C472   1.410       .  A
C472        H476   1.078       .  S
C477        H483   1.082       .  S
C477        C478   1.404       .  A
C477        C482   1.401       .  A
C478        C479   1.402       .  A
C479        H484   1.083       .  S
C479        C480   1.397       .  A
C480        H485   1.079       .  S
C480        C481   1.410       .  A
C481        C482   1.410       .  A
C482        H486   1.083       .  S
C487        H493   1.082       .  S
C487        C488   1.402       .  A
C487        C492   1.398       .  A
C488        C489   1.403       .  A
C489        H494   1.083       .  S
C489        C490   1.397       .  A
C490        H495   1.077       .  S
C490        C491   1.410       .  A
C491        C492   1.409       .  A
C492        H496   1.083       .  S
C497        H503   1.082       .  S
C497        C498   1.402       .  A
C497        C502   1.398       .  A
C498        C499   1.404       .  A
C499        H504   1.083       .  S
C499        C500   1.399       .  A
C500        H505   1.082       .  S
C500        C501   1.409       .  A
C501        C502   1.411       .  A
C502        H506   1.080       .  S
C507        N525   1.350       .  A
C507        C544   1.465       .  S
C507        C751   1.481       .  S
N508        N525   1.324       .  A
N508        N530   1.320       .  A
N508       Co545   2.082   1_565  S
C509        N534   1.342       .  A
C509        C547   1.463       .  S
C509        H554   1.081       .  S
H510        C551   1.081       .  S
C511        N535   1.341       .  A
C511        C515   1.463       .  S
C511        H540   1.081       .  S
Co512       N805   2.079       .  S
Co512       N528   2.088       .  S
Co512     Cl1821   2.450       .  S
N513        C551   1.341       .  A
N513        N520   1.320       .  A
N513      Co1020   2.086   1_565  S
Co514      N1019   2.086   1_455  S
Co514      N1546   2.085   1_455  S
Co514       N521   2.088       .  S
Co514      Cl809   2.452   1_455  S
C515        N553   1.350       .  A
C515        C741   1.477       .  S
N516        N523   1.319       .  A
N516        N546   1.324       .  A
N516       Co549   2.085       .  S
N517        N535   1.320       .  A
N517        N553   1.323       .  A
N518        C547   1.351       .  A
N518        N528   1.324       .  A
H519        C544   1.081       .  S
N520        N541   1.323       .  A
N521        N539   1.320       .  A
N521        N526   1.325       .  A
C522        N526   1.352       .  A
C522        C550   1.463       .  S
C522        C681   1.482       .  S
N523        C538   1.343       .  A
N523      Co1557   2.090   1_465  S
C524        N552   1.340       .  A
C524        C527   1.461       .  S
C524        H558   1.081       .  S
C527        N548   1.351       .  A
C527        C701   1.478       .  S
N528        N534   1.319       .  A
N529        C555   1.341       .  A
N529        N531   1.320       .  A
N529      Co1051   2.083   1_455  S
N530        C544   1.342       .  A
N531        N559   1.324       .  A
H532        C555   1.081       .  S
H533        C550   1.081       .  S
N534      Co1526   2.085       .  S
N535       Co802   2.086       .  S
N536        N548   1.324       .  A
N536        N552   1.319       .  A
C537        N541   1.350       .  A
C537        C551   1.462       .  S
C537        C721   1.478       .  S
C538        C557   1.464       .  S
C538        H542   1.081       .  S
N539        C550   1.341       .  A
C543        N559   1.352       .  A
C543        C555   1.461       .  S
C543        C711   1.479       .  S
Co545      N1535   2.090   1_545  S
Co545      N1035   2.083       .  S
Co545     Cl1062   2.451   1_554  S
N546        C557   1.351       .  A
C547        C731   1.481       .  S
Co549       N788   2.086   1_554  S
N552       Co765   2.079   1_554  S
Cl556     Co1777   2.450       .  S
Cl556      Co767   2.452   1_655  S
Cl556     Co1051   2.451   1_556  S
C557        C691   1.482       .  S
C560        C561   1.549       .  S
C560        C566   1.545       .  S
C560        C564   1.539       .  S
C560        C684   1.530       .  S
C561        H568   1.084       .  S
C561        C562   1.363       .  D
C562        C563   1.530       .  S
C562        C676   1.442       .  S
C563        C567   1.532       .  S
C563        C565   1.532       .  S
C563        H569   1.112       .  S
C564        H570   1.086       .  S
C564        C565   1.363       .  D
C565        C678   1.440       .  S
C566        H571   1.086       .  S
C566        C567   1.363       .  D
C567        C674   1.443       .  S
C572        C573   1.548       .  S
C572        C578   1.544       .  S
C572        C576   1.540       .  S
C572        C744   1.527       .  S
C573        H580   1.082       .  S
C573        C574   1.362       .  D
C574        C575   1.530       .  S
C574        C670   1.438       .  S
C575        C579   1.532       .  S
C575        C577   1.532       .  S
C575        H581   1.112       .  S
C576        H582   1.086       .  S
C576        C577   1.363       .  D
C577        C679   1.440       .  S
C578        H583   1.086       .  S
C578        C579   1.363       .  D
C579        C672   1.443       .  S
C584        C585   1.548       .  S
C584        C590   1.545       .  S
C584        C588   1.541       .  S
C584        C694   1.530       .  S
C585        H592   1.084       .  S
C585        C586   1.362       .  D
C586        C587   1.529       .  S
C586        C668   1.439       .  S
C587        C591   1.529       .  S
C587        C589   1.531       .  S
C587        H593   1.112       .  S
C588        H594   1.086       .  S
C588        C589   1.366       .  D
C589        C666   1.442       .  S
C590        H595   1.086       .  S
C590        C591   1.361       .  D
C591        C671   1.438       .  S
C596        C597   1.546       .  S
C596        C602   1.548       .  S
C596        C600   1.539       .  S
C596        C714   1.529       .  S
C597        H604   1.086       .  S
C597        C598   1.365       .  D
C598        C599   1.533       .  S
C598        C675   1.443       .  S
C599        C603   1.531       .  S
C599        C601   1.533       .  S
C599        H605   1.112       .  S
C600        H606   1.087       .  S
C600        C601   1.362       .  D
C601        C667   1.442       .  S
C602        H607   1.083       .  S
C602        C603   1.362       .  D
C603        C664   1.441       .  S
C608        C609   1.545       .  S
C608        C614   1.549       .  S
C608        C612   1.540       .  S
C608        C734   1.531       .  S
C609        H616   1.086       .  S
C609        C610   1.363       .  D
C610        C611   1.532       .  S
C610        C660   1.441       .  S
C611        C615   1.530       .  S
C611        C613   1.532       .  S
C611        H617   1.112       .  S
C612        H618   1.086       .  S
C612        C613   1.365       .  D
C613        C662   1.440       .  S
C614        H619   1.083       .  S
C614        C615   1.361       .  D
C615        C677   1.441       .  S
C620        C621   1.543       .  S
C620        C626   1.550       .  S
C620        C624   1.540       .  S
C620        C704   1.528       .  S
C621        H628   1.086       .  S
C621        C622   1.363       .  D
C622        C623   1.532       .  S
C622        C665   1.441       .  S
C623        C627   1.530       .  S
C623        C625   1.532       .  S
C623        H629   1.112       .  S
C624        H630   1.086       .  S
C624        C625   1.363       .  D
C625        C658   1.441       .  S
C626        H631   1.082       .  S
C626        C627   1.362       .  D
C627        C661   1.442       .  S
C632        C633   1.546       .  S
C632        C638   1.546       .  S
C632        C636   1.540       .  S
C632        C754   1.529       .  S
C633        H640   1.086       .  S
C633        C634   1.364       .  D
C634        C635   1.533       .  S
C634        C656   1.443       .  S
C635        C639   1.530       .  S
C635        C637   1.533       .  S
C635        H641   1.112       .  S
C636        H642   1.086       .  S
C636        C637   1.364       .  D
C637        C659   1.442       .  S
C638        H643   1.085       .  S
C638        C639   1.361       .  D
C639        C669   1.439       .  S
C644        C645   1.548       .  S
C644        C650   1.544       .  S
C644        C648   1.538       .  S
C644        C724   1.526       .  S
C645        H652   1.083       .  S
C645        C646   1.363       .  D
C646        C647   1.533       .  S
C646        C673   1.443       .  S
C647        C651   1.533       .  S
C647        C649   1.533       .  S
C647        H653   1.112       .  S
C648        H654   1.087       .  S
C648        C649   1.361       .  D
C649        C663   1.440       .  S
C650        H655   1.086       .  S
C650        C651   1.363       .  D
C651        C657   1.443       .  S
C656        C657   1.206       .  T
C658        C659   1.206       .  T
C660        C661   1.206       .  T
C662        C663   1.205       .  T
C664        C665   1.205       .  T
C666        C667   1.206       .  T
C668        C669   1.204       .  T
C670        C671   1.204       .  T
C672        C673   1.206       .  T
C674        C675   1.207       .  T
C676        C677   1.206       .  T
C678        C679   1.205       .  T
C680        H686   1.083       .  S
C680        C681   1.403       .  A
C680        C685   1.399       .  A
C681        C682   1.404       .  A
C682        H687   1.082       .  S
C682        C683   1.399       .  A
C683        H688   1.079       .  S
C683        C684   1.410       .  A
C684        C685   1.410       .  A
C685        H689   1.083       .  S
C690        H696   1.082       .  S
C690        C691   1.403       .  A
C690        C695   1.400       .  A
C691        C692   1.403       .  A
C692        H697   1.083       .  S
C692        C693   1.398       .  A
C693        H698   1.080       .  S
C693        C694   1.410       .  A
C694        C695   1.410       .  A
C695        H699   1.083       .  S
C700        H706   1.082       .  S
C700        C701   1.403       .  A
C700        C705   1.399       .  A
C701        C702   1.402       .  A
C702        H707   1.083       .  S
C702        C703   1.397       .  A
C703        H708   1.077       .  S
C703        C704   1.410       .  A
C704        C705   1.410       .  A
C705        H709   1.083       .  S
C710        H716   1.082       .  S
C710        C711   1.403       .  A
C710        C715   1.399       .  A
C711        C712   1.402       .  A
C712        H717   1.083       .  S
C712        C713   1.397       .  A
C713        H718   1.078       .  S
C713        C714   1.411       .  A
C714        C715   1.409       .  A
C715        H719   1.083       .  S
C720        H726   1.083       .  S
C720        C721   1.403       .  A
C720        C725   1.397       .  A
C721        C722   1.402       .  A
C722        H727   1.082       .  S
C722        C723   1.398       .  A
C723        H728   1.083       .  S
C723        C724   1.409       .  A
C724        C725   1.410       .  A
C725        H729   1.078       .  S
C730        H736   1.082       .  S
C730        C731   1.404       .  A
C730        C735   1.401       .  A
C731        C732   1.402       .  A
C732        H737   1.083       .  S
C732        C733   1.397       .  A
C733        H738   1.079       .  S
C733        C734   1.410       .  A
C734        C735   1.410       .  A
C735        H739   1.083       .  S
C740        H746   1.082       .  S
C740        C741   1.402       .  A
C740        C745   1.398       .  A
C741        C742   1.403       .  A
C742        H747   1.083       .  S
C742        C743   1.397       .  A
C743        H748   1.077       .  S
C743        C744   1.410       .  A
C744        C745   1.409       .  A
C745        H749   1.083       .  S
C750        H756   1.082       .  S
C750        C751   1.402       .  A
C750        C755   1.398       .  A
C751        C752   1.404       .  A
C752        H757   1.083       .  S
C752        C753   1.399       .  A
C753        H758   1.082       .  S
C753        C754   1.409       .  A
C754        C755   1.411       .  A
C755        H759   1.080       .  S
C760        N778   1.350       .  A
C760        C797   1.465       .  S
C760       C1004   1.481       .  S
N761        N778   1.324       .  A
N761        N783   1.320       .  A
N761       Co798   2.082   1_565  S
C762        N787   1.342       .  A
C762        C800   1.463       .  S
C762        H807   1.081       .  S
H763        C804   1.081       .  S
C764        N788   1.341       .  A
C764        C768   1.463       .  S
C764        H793   1.081       .  S
Co765       N781   2.088       .  S
Co765     Cl1568   2.450       .  S
N766        C804   1.341       .  A
N766        N773   1.320       .  A
N766      Co1273   2.086   1_565  S
Co767      N1272   2.086   1_455  S
Co767      N1799   2.085   1_455  S
Co767       N774   2.088       .  S
C768        N806   1.350       .  A
C768        C994   1.477       .  S
N769        N776   1.319       .  A
N769        N799   1.324       .  A
N769       Co802   2.085       .  S
N770        N788   1.320       .  A
N770        N806   1.323       .  A
N771        C800   1.351       .  A
N771        N781   1.324       .  A
H772        C797   1.081       .  S
N773        N794   1.323       .  A
N774        N792   1.320       .  A
N774        N779   1.325       .  A
C775        N779   1.352       .  A
C775        C803   1.463       .  S
C775        C934   1.482       .  S
N776        C791   1.343       .  A
N776      Co1810   2.090   1_465  S
C777        N805   1.340       .  A
C777        C780   1.461       .  S
C777        H811   1.081       .  S
C780        N801   1.351       .  A
C780        C954   1.478       .  S
N781        N787   1.319       .  A
N782        C808   1.341       .  A
N782        N784   1.320       .  A
N782      Co1304   2.083   1_455  S
N783        C797   1.342       .  A
N784        N812   1.324       .  A
H785        C808   1.081       .  S
H786        C803   1.081       .  S
N787      Co1779   2.085       .  S
N789        N801   1.324       .  A
N789        N805   1.319       .  A
C790        N794   1.350       .  A
C790        C804   1.462       .  S
C790        C974   1.478       .  S
C791        C810   1.464       .  S
C791        H795   1.081       .  S
N792        C803   1.341       .  A
C796        N812   1.352       .  A
C796        C808   1.461       .  S
C796        C964   1.479       .  S
Co798      N1788   2.090   1_545  S
Co798      N1288   2.083       .  S
Co798     Cl1315   2.451       .  S
N799        C810   1.351       .  A
C800        C984   1.481       .  S
Cl809     Co1524   2.450       .  S
Cl809     Co1304   2.451       .  S
C810        C944   1.482       .  S
C813        C814   1.549       .  S
C813        C819   1.545       .  S
C813        C817   1.539       .  S
C813        C937   1.530       .  S
C814        H821   1.084       .  S
C814        C815   1.363       .  D
C815        C816   1.530       .  S
C815        C929   1.442       .  S
C816        C820   1.532       .  S
C816        C818   1.532       .  S
C816        H822   1.112       .  S
C817        H823   1.086       .  S
C817        C818   1.363       .  D
C818        C931   1.440       .  S
C819        H824   1.086       .  S
C819        C820   1.363       .  D
C820        C927   1.443       .  S
C825        C826   1.548       .  S
C825        C831   1.544       .  S
C825        C829   1.540       .  S
C825        C997   1.527       .  S
C826        H833   1.082       .  S
C826        C827   1.362       .  D
C827        C828   1.530       .  S
C827        C923   1.438       .  S
C828        C832   1.532       .  S
C828        C830   1.532       .  S
C828        H834   1.112       .  S
C829        H835   1.086       .  S
C829        C830   1.363       .  D
C830        C932   1.440       .  S
C831        H836   1.086       .  S
C831        C832   1.363       .  D
C832        C925   1.443       .  S
C837        C838   1.548       .  S
C837        C843   1.545       .  S
C837        C841   1.541       .  S
C837        C947   1.530       .  S
C838        H845   1.084       .  S
C838        C839   1.362       .  D
C839        C840   1.529       .  S
C839        C921   1.439       .  S
C840        C844   1.529       .  S
C840        C842   1.531       .  S
C840        H846   1.112       .  S
C841        H847   1.086       .  S
C841        C842   1.366       .  D
C842        C919   1.442       .  S
C843        H848   1.086       .  S
C843        C844   1.361       .  D
C844        C924   1.438       .  S
C849        C850   1.546       .  S
C849        C855   1.548       .  S
C849        C853   1.539       .  S
C849        C967   1.529       .  S
C850        H857   1.086       .  S
C850        C851   1.365       .  D
C851        C852   1.533       .  S
C851        C928   1.443       .  S
C852        C856   1.531       .  S
C852        C854   1.533       .  S
C852        H858   1.112       .  S
C853        H859   1.087       .  S
C853        C854   1.362       .  D
C854        C920   1.442       .  S
C855        H860   1.083       .  S
C855        C856   1.362       .  D
C856        C917   1.441       .  S
C861        C862   1.545       .  S
C861        C867   1.549       .  S
C861        C865   1.540       .  S
C861        C987   1.531       .  S
C862        H869   1.086       .  S
C862        C863   1.363       .  D
C863        C864   1.532       .  S
C863        C913   1.441       .  S
C864        C868   1.530       .  S
C864        C866   1.532       .  S
C864        H870   1.112       .  S
C865        H871   1.086       .  S
C865        C866   1.365       .  D
C866        C915   1.440       .  S
C867        H872   1.083       .  S
C867        C868   1.361       .  D
C868        C930   1.441       .  S
C873        C874   1.543       .  S
C873        C879   1.550       .  S
C873        C877   1.540       .  S
C873        C957   1.528       .  S
C874        H881   1.086       .  S
C874        C875   1.363       .  D
C875        C876   1.532       .  S
C875        C918   1.441       .  S
C876        C880   1.530       .  S
C876        C878   1.532       .  S
C876        H882   1.112       .  S
C877        H883   1.086       .  S
C877        C878   1.363       .  D
C878        C911   1.441       .  S
C879        H884   1.082       .  S
C879        C880   1.362       .  D
C880        C914   1.442       .  S
C885        C886   1.546       .  S
C885        C891   1.546       .  S
C885        C889   1.540       .  S
C885       C1007   1.529       .  S
C886        H893   1.086       .  S
C886        C887   1.364       .  D
C887        C888   1.533       .  S
C887        C909   1.443       .  S
C888        C892   1.530       .  S
C888        C890   1.533       .  S
C888        H894   1.112       .  S
C889        H895   1.086       .  S
C889        C890   1.364       .  D
C890        C912   1.442       .  S
C891        H896   1.085       .  S
C891        C892   1.361       .  D
C892        C922   1.439       .  S
C897        C898   1.548       .  S
C897        C903   1.544       .  S
C897        C901   1.538       .  S
C897        C977   1.526       .  S
C898        H905   1.083       .  S
C898        C899   1.363       .  D
C899        C900   1.533       .  S
C899        C926   1.443       .  S
C900        C904   1.533       .  S
C900        C902   1.533       .  S
C900        H906   1.112       .  S
C901        H907   1.087       .  S
C901        C902   1.361       .  D
C902        C916   1.440       .  S
C903        H908   1.086       .  S
C903        C904   1.363       .  D
C904        C910   1.443       .  S
C909        C910   1.206       .  T
C911        C912   1.206       .  T
C913        C914   1.206       .  T
C915        C916   1.205       .  T
C917        C918   1.205       .  T
C919        C920   1.206       .  T
C921        C922   1.204       .  T
C923        C924   1.204       .  T
C925        C926   1.206       .  T
C927        C928   1.207       .  T
C929        C930   1.206       .  T
C931        C932   1.205       .  T
C933        H939   1.083       .  S
C933        C934   1.403       .  A
C933        C938   1.399       .  A
C934        C935   1.404       .  A
C935        H940   1.082       .  S
C935        C936   1.399       .  A
C936        H941   1.079       .  S
C936        C937   1.410       .  A
C937        C938   1.410       .  A
C938        H942   1.083       .  S
C943        H949   1.082       .  S
C943        C944   1.403       .  A
C943        C948   1.400       .  A
C944        C945   1.403       .  A
C945        H950   1.083       .  S
C945        C946   1.398       .  A
C946        H951   1.080       .  S
C946        C947   1.410       .  A
C947        C948   1.410       .  A
C948        H952   1.083       .  S
C953        H959   1.082       .  S
C953        C954   1.403       .  A
C953        C958   1.399       .  A
C954        C955   1.402       .  A
C955        H960   1.083       .  S
C955        C956   1.397       .  A
C956        H961   1.077       .  S
C956        C957   1.410       .  A
C957        C958   1.410       .  A
C958        H962   1.083       .  S
C963        H969   1.082       .  S
C963        C964   1.403       .  A
C963        C968   1.399       .  A
C964        C965   1.402       .  A
C965        H970   1.083       .  S
C965        C966   1.397       .  A
C966        H971   1.078       .  S
C966        C967   1.411       .  A
C967        C968   1.409       .  A
C968        H972   1.083       .  S
C973        H979   1.083       .  S
C973        C974   1.403       .  A
C973        C978   1.397       .  A
C974        C975   1.402       .  A
C975        H980   1.082       .  S
C975        C976   1.398       .  A
C976        H981   1.083       .  S
C976        C977   1.409       .  A
C977        C978   1.410       .  A
C978        H982   1.078       .  S
C983        H989   1.082       .  S
C983        C984   1.404       .  A
C983        C988   1.401       .  A
C984        C985   1.402       .  A
C985        H990   1.083       .  S
C985        C986   1.397       .  A
C986        H991   1.079       .  S
C986        C987   1.410       .  A
C987        C988   1.410       .  A
C988        H992   1.083       .  S
C993        H999   1.082       .  S
C993        C994   1.402       .  A
C993        C998   1.398       .  A
C994        C995   1.403       .  A
C995       H1000   1.083       .  S
C995        C996   1.397       .  A
C996       H1001   1.077       .  S
C996        C997   1.410       .  A
C997        C998   1.409       .  A
C998       H1002   1.083       .  S
C1003      H1009   1.082       .  S
C1003      C1004   1.402       .  A
C1003      C1008   1.398       .  A
C1004      C1005   1.404       .  A
C1005      H1010   1.083       .  S
C1005      C1006   1.399       .  A
C1006      H1011   1.082       .  S
C1006      C1007   1.409       .  A
C1007      C1008   1.411       .  A
C1008      H1012   1.080       .  S
C1013      N1031   1.350       .  A
C1013      C1050   1.465       .  S
C1013      C1257   1.481       .  S
N1014      N1031   1.324       .  A
N1014      N1036   1.320       .  A
N1014     Co1051   2.082       .  S
C1015      N1040   1.342       .  A
C1015      C1053   1.463       .  S
C1015      H1060   1.081       .  S
H1016      C1057   1.081       .  S
C1017      N1041   1.341       .  A
C1017      C1021   1.463       .  S
C1017      H1046   1.081       .  S
Co1018     N1795   2.091   1_545  S
Co1018     N1532   2.081   1_545  S
Co1018     N1311   2.079       .  S
Co1018     N1034   2.088       .  S
N1019      C1057   1.341       .  A
N1019      N1026   1.320       .  A
Co1020     N1529   2.082   1_545  S
Co1020     N1027   2.088       .  S
Co1020    Cl1315   2.452       .  S
C1021      N1059   1.350       .  A
C1021      C1247   1.477       .  S
N1022      N1029   1.319       .  A
N1022      N1052   1.324       .  A
N1022     Co1055   2.085       .  S
N1023      N1041   1.320       .  A
N1023      N1059   1.323       .  A
N1023     Co1526   2.082       .  S
N1024      C1053   1.351       .  A
N1024      N1034   1.324       .  A
H1025      C1050   1.081       .  S
N1026      N1047   1.323       .  A
N1026     Co1524   2.081       .  S
N1027      N1045   1.320       .  A
N1027      N1032   1.325       .  A
C1028      N1032   1.352       .  A
C1028      C1056   1.463       .  S
C1028      C1187   1.482       .  S
N1029      C1044   1.343       .  A
C1030      N1058   1.340       .  A
C1030      C1033   1.461       .  S
C1030      H1064   1.081       .  S
C1033      N1054   1.351       .  A
C1033      C1207   1.478       .  S
N1034      N1040   1.319       .  A
N1035      C1061   1.341       .  A
N1035      N1037   1.320       .  A
N1036      C1050   1.342       .  A
N1036     Co1777   2.091   1_554  S
N1037      N1065   1.324       .  A
N1037     Co1561   2.087   1_545  S
H1038      C1061   1.081       .  S
H1039      C1056   1.081       .  S
N1041     Co1308   2.086       .  S
N1042      N1054   1.324       .  A
N1042      N1058   1.319       .  A
N1042     Co1557   2.088       .  S
C1043      N1047   1.350       .  A
C1043      C1057   1.462       .  S
C1043      C1227   1.478       .  S
C1044      C1063   1.464       .  S
C1044      H1048   1.081       .  S
N1045      C1056   1.341       .  A
N1045     Co1814   2.086   1_545  S
C1049      N1065   1.352       .  A
C1049      C1061   1.461       .  S
C1049      C1217   1.479       .  S
Co1051     N1548   2.088       .  S
N1052      C1063   1.351       .  A
C1053      C1237   1.481       .  S
Co1055     N1543   2.087       .  S
Co1055     N1294   2.086   1_554  S
Co1055     N1804   2.086   1_554  S
Co1055    Cl1568   2.450   1_554  S
N1058     Co1271   2.079   1_554  S
Cl1062    Co1273   2.452       .  S
Cl1062    Co1561   2.450   1_546  S
C1063      C1197   1.482       .  S
C1066      C1067   1.549       .  S
C1066      C1072   1.545       .  S
C1066      C1070   1.539       .  S
C1066      C1190   1.530       .  S
C1067      H1074   1.084       .  S
C1067      C1068   1.363       .  D
C1068      C1069   1.530       .  S
C1068      C1182   1.442       .  S
C1069      C1073   1.532       .  S
C1069      C1071   1.532       .  S
C1069      H1075   1.112       .  S
C1070      H1076   1.086       .  S
C1070      C1071   1.363       .  D
C1071      C1184   1.440       .  S
C1072      H1077   1.086       .  S
C1072      C1073   1.363       .  D
C1073      C1180   1.443       .  S
C1078      C1079   1.548       .  S
C1078      C1084   1.544       .  S
C1078      C1082   1.540       .  S
C1078      C1250   1.527       .  S
C1079      H1086   1.082       .  S
C1079      C1080   1.362       .  D
C1080      C1081   1.530       .  S
C1080      C1176   1.438       .  S
C1081      C1085   1.532       .  S
C1081      C1083   1.532       .  S
C1081      H1087   1.112       .  S
C1082      H1088   1.086       .  S
C1082      C1083   1.363       .  D
C1083      C1185   1.440       .  S
C1084      H1089   1.086       .  S
C1084      C1085   1.363       .  D
C1085      C1178   1.443       .  S
C1090      C1091   1.548       .  S
C1090      C1096   1.545       .  S
C1090      C1094   1.541       .  S
C1090      C1200   1.530       .  S
C1091      H1098   1.084       .  S
C1091      C1092   1.362       .  D
C1092      C1093   1.529       .  S
C1092      C1174   1.439       .  S
C1093      C1097   1.529       .  S
C1093      C1095   1.531       .  S
C1093      H1099   1.112       .  S
C1094      H1100   1.086       .  S
C1094      C1095   1.366       .  D
C1095      C1172   1.442       .  S
C1096      H1101   1.086       .  S
C1096      C1097   1.361       .  D
C1097      C1177   1.438       .  S
C1102      C1103   1.546       .  S
C1102      C1108   1.548       .  S
C1102      C1106   1.539       .  S
C1102      C1220   1.529       .  S
C1103      H1110   1.086       .  S
C1103      C1104   1.365       .  D
C1104      C1105   1.533       .  S
C1104      C1181   1.443       .  S
C1105      C1109   1.531       .  S
C1105      C1107   1.533       .  S
C1105      H1111   1.112       .  S
C1106      H1112   1.087       .  S
C1106      C1107   1.362       .  D
C1107      C1173   1.442       .  S
C1108      H1113   1.083       .  S
C1108      C1109   1.362       .  D
C1109      C1170   1.441       .  S
C1114      C1115   1.545       .  S
C1114      C1120   1.549       .  S
C1114      C1118   1.540       .  S
C1114      C1240   1.531       .  S
C1115      H1122   1.086       .  S
C1115      C1116   1.363       .  D
C1116      C1117   1.532       .  S
C1116      C1166   1.441       .  S
C1117      C1121   1.530       .  S
C1117      C1119   1.532       .  S
C1117      H1123   1.112       .  S
C1118      H1124   1.086       .  S
C1118      C1119   1.365       .  D
C1119      C1168   1.440       .  S
C1120      H1125   1.083       .  S
C1120      C1121   1.361       .  D
C1121      C1183   1.441       .  S
C1126      C1127   1.543       .  S
C1126      C1132   1.550       .  S
C1126      C1130   1.540       .  S
C1126      C1210   1.528       .  S
C1127      H1134   1.086       .  S
C1127      C1128   1.363       .  D
C1128      C1129   1.532       .  S
C1128      C1171   1.441       .  S
C1129      C1133   1.530       .  S
C1129      C1131   1.532       .  S
C1129      H1135   1.112       .  S
C1130      H1136   1.086       .  S
C1130      C1131   1.363       .  D
C1131      C1164   1.441       .  S
C1132      H1137   1.082       .  S
C1132      C1133   1.362       .  D
C1133      C1167   1.442       .  S
C1138      C1139   1.546       .  S
C1138      C1144   1.546       .  S
C1138      C1142   1.540       .  S
C1138      C1260   1.529       .  S
C1139      H1146   1.086       .  S
C1139      C1140   1.364       .  D
C1140      C1141   1.533       .  S
C1140      C1162   1.443       .  S
C1141      C1145   1.530       .  S
C1141      C1143   1.533       .  S
C1141      H1147   1.112       .  S
C1142      H1148   1.086       .  S
C1142      C1143   1.364       .  D
C1143      C1165   1.442       .  S
C1144      H1149   1.085       .  S
C1144      C1145   1.361       .  D
C1145      C1175   1.439       .  S
C1150      C1151   1.548       .  S
C1150      C1156   1.544       .  S
C1150      C1154   1.538       .  S
C1150      C1230   1.526       .  S
C1151      H1158   1.083       .  S
C1151      C1152   1.363       .  D
C1152      C1153   1.533       .  S
C1152      C1179   1.443       .  S
C1153      C1157   1.533       .  S
C1153      C1155   1.533       .  S
C1153      H1159   1.112       .  S
C1154      H1160   1.087       .  S
C1154      C1155   1.361       .  D
C1155      C1169   1.440       .  S
C1156      H1161   1.086       .  S
C1156      C1157   1.363       .  D
C1157      C1163   1.443       .  S
C1162      C1163   1.206       .  T
C1164      C1165   1.206       .  T
C1166      C1167   1.206       .  T
C1168      C1169   1.205       .  T
C1170      C1171   1.205       .  T
C1172      C1173   1.206       .  T
C1174      C1175   1.204       .  T
C1176      C1177   1.204       .  T
C1178      C1179   1.206       .  T
C1180      C1181   1.207       .  T
C1182      C1183   1.206       .  T
C1184      C1185   1.205       .  T
C1186      H1192   1.083       .  S
C1186      C1187   1.403       .  A
C1186      C1191   1.399       .  A
C1187      C1188   1.404       .  A
C1188      H1193   1.082       .  S
C1188      C1189   1.399       .  A
C1189      H1194   1.079       .  S
C1189      C1190   1.410       .  A
C1190      C1191   1.410       .  A
C1191      H1195   1.083       .  S
C1196      H1202   1.082       .  S
C1196      C1197   1.403       .  A
C1196      C1201   1.400       .  A
C1197      C1198   1.403       .  A
C1198      H1203   1.083       .  S
C1198      C1199   1.398       .  A
C1199      H1204   1.080       .  S
C1199      C1200   1.410       .  A
C1200      C1201   1.410       .  A
C1201      H1205   1.083       .  S
C1206      H1212   1.082       .  S
C1206      C1207   1.403       .  A
C1206      C1211   1.399       .  A
C1207      C1208   1.402       .  A
C1208      H1213   1.083       .  S
C1208      C1209   1.397       .  A
C1209      H1214   1.077       .  S
C1209      C1210   1.410       .  A
C1210      C1211   1.410       .  A
C1211      H1215   1.083       .  S
C1216      H1222   1.082       .  S
C1216      C1217   1.403       .  A
C1216      C1221   1.399       .  A
C1217      C1218   1.402       .  A
C1218      H1223   1.083       .  S
C1218      C1219   1.397       .  A
C1219      H1224   1.078       .  S
C1219      C1220   1.411       .  A
C1220      C1221   1.409       .  A
C1221      H1225   1.083       .  S
C1226      H1232   1.083       .  S
C1226      C1227   1.403       .  A
C1226      C1231   1.397       .  A
C1227      C1228   1.402       .  A
C1228      H1233   1.082       .  S
C1228      C1229   1.398       .  A
C1229      H1234   1.083       .  S
C1229      C1230   1.409       .  A
C1230      C1231   1.410       .  A
C1231      H1235   1.078       .  S
C1236      H1242   1.082       .  S
C1236      C1237   1.404       .  A
C1236      C1241   1.401       .  A
C1237      C1238   1.402       .  A
C1238      H1243   1.083       .  S
C1238      C1239   1.397       .  A
C1239      H1244   1.079       .  S
C1239      C1240   1.410       .  A
C1240      C1241   1.410       .  A
C1241      H1245   1.083       .  S
C1246      H1252   1.082       .  S
C1246      C1247   1.402       .  A
C1246      C1251   1.398       .  A
C1247      C1248   1.403       .  A
C1248      H1253   1.083       .  S
C1248      C1249   1.397       .  A
C1249      H1254   1.077       .  S
C1249      C1250   1.410       .  A
C1250      C1251   1.409       .  A
C1251      H1255   1.083       .  S
C1256      H1262   1.082       .  S
C1256      C1257   1.402       .  A
C1256      C1261   1.398       .  A
C1257      C1258   1.404       .  A
C1258      H1263   1.083       .  S
C1258      C1259   1.399       .  A
C1259      H1264   1.082       .  S
C1259      C1260   1.409       .  A
C1260      C1261   1.411       .  A
C1261      H1265   1.080       .  S
C1266      N1284   1.350       .  A
C1266      C1303   1.465       .  S
C1266      C1510   1.481       .  S
N1267      N1284   1.324       .  A
N1267      N1289   1.320       .  A
N1267     Co1304   2.082       .  S
C1268      N1293   1.342       .  A
C1268      C1306   1.463       .  S
C1268      H1313   1.081       .  S
H1269      C1310   1.081       .  S
C1270      N1294   1.341       .  A
C1270      C1274   1.463       .  S
C1270      H1299   1.081       .  S
Co1271     N1542   2.091   1_546  S
Co1271     N1785   2.081   1_545  S
Co1271     N1287   2.088       .  S
N1272      C1310   1.341       .  A
N1272      N1279   1.320       .  A
Co1273     N1782   2.082   1_545  S
Co1273     N1280   2.088       .  S
C1274      N1312   1.350       .  A
C1274      C1500   1.477       .  S
N1275      N1282   1.319       .  A
N1275      N1305   1.324       .  A
N1275     Co1308   2.085       .  S
N1276      N1294   1.320       .  A
N1276      N1312   1.323       .  A
N1276     Co1779   2.082       .  S
N1277      C1306   1.351       .  A
N1277      N1287   1.324       .  A
H1278      C1303   1.081       .  S
N1279      N1300   1.323       .  A
N1279     Co1777   2.081       .  S
N1280      N1298   1.320       .  A
N1280      N1285   1.325       .  A
C1281      N1285   1.352       .  A
C1281      C1309   1.463       .  S
C1281      C1440   1.482       .  S
N1282      C1297   1.343       .  A
C1283      N1311   1.340       .  A
C1283      C1286   1.461       .  S
C1283      H1317   1.081       .  S
C1286      N1307   1.351       .  A
C1286      C1460   1.478       .  S
N1287      N1293   1.319       .  A
N1288      C1314   1.341       .  A
N1288      N1290   1.320       .  A
N1289      C1303   1.342       .  A
N1289     Co1524   2.091       .  S
N1290      N1318   1.324       .  A
N1290     Co1814   2.087   1_545  S
H1291      C1314   1.081       .  S
H1292      C1309   1.081       .  S
N1295      N1307   1.324       .  A
N1295      N1311   1.319       .  A
N1295     Co1810   2.088       .  S
C1296      N1300   1.350       .  A
C1296      C1310   1.462       .  S
C1296      C1480   1.478       .  S
C1297      C1316   1.464       .  S
C1297      H1301   1.081       .  S
N1298      C1309   1.341       .  A
N1298     Co1561   2.086   1_546  S
C1302      N1318   1.352       .  A
C1302      C1314   1.461       .  S
C1302      C1470   1.479       .  S
Co1304     N1801   2.088       .  S
N1305      C1316   1.351       .  A
C1306      C1490   1.481       .  S
Co1308     N1796   2.087       .  S
Co1308     N1551   2.086       .  S
Co1308    Cl1821   2.450       .  S
Cl1315    Co1814   2.450   1_545  S
C1316      C1450   1.482       .  S
C1319      C1320   1.549       .  S
C1319      C1325   1.545       .  S
C1319      C1323   1.539       .  S
C1319      C1443   1.530       .  S
C1320      H1327   1.084       .  S
C1320      C1321   1.363       .  D
C1321      C1322   1.530       .  S
C1321      C1435   1.442       .  S
C1322      C1326   1.532       .  S
C1322      C1324   1.532       .  S
C1322      H1328   1.112       .  S
C1323      H1329   1.086       .  S
C1323      C1324   1.363       .  D
C1324      C1437   1.440       .  S
C1325      H1330   1.086       .  S
C1325      C1326   1.363       .  D
C1326      C1433   1.443       .  S
C1331      C1332   1.548       .  S
C1331      C1337   1.544       .  S
C1331      C1335   1.540       .  S
C1331      C1503   1.527       .  S
C1332      H1339   1.082       .  S
C1332      C1333   1.362       .  D
C1333      C1334   1.530       .  S
C1333      C1429   1.438       .  S
C1334      C1338   1.532       .  S
C1334      C1336   1.532       .  S
C1334      H1340   1.112       .  S
C1335      H1341   1.086       .  S
C1335      C1336   1.363       .  D
C1336      C1438   1.440       .  S
C1337      H1342   1.086       .  S
C1337      C1338   1.363       .  D
C1338      C1431   1.443       .  S
C1343      C1344   1.548       .  S
C1343      C1349   1.545       .  S
C1343      C1347   1.541       .  S
C1343      C1453   1.530       .  S
C1344      H1351   1.084       .  S
C1344      C1345   1.362       .  D
C1345      C1346   1.529       .  S
C1345      C1427   1.439       .  S
C1346      C1350   1.529       .  S
C1346      C1348   1.531       .  S
C1346      H1352   1.112       .  S
C1347      H1353   1.086       .  S
C1347      C1348   1.366       .  D
C1348      C1425   1.442       .  S
C1349      H1354   1.086       .  S
C1349      C1350   1.361       .  D
C1350      C1430   1.438       .  S
C1355      C1356   1.546       .  S
C1355      C1361   1.548       .  S
C1355      C1359   1.539       .  S
C1355      C1473   1.529       .  S
C1356      H1363   1.086       .  S
C1356      C1357   1.365       .  D
C1357      C1358   1.533       .  S
C1357      C1434   1.443       .  S
C1358      C1362   1.531       .  S
C1358      C1360   1.533       .  S
C1358      H1364   1.112       .  S
C1359      H1365   1.087       .  S
C1359      C1360   1.362       .  D
C1360      C1426   1.442       .  S
C1361      H1366   1.083       .  S
C1361      C1362   1.362       .  D
C1362      C1423   1.441       .  S
C1367      C1368   1.545       .  S
C1367      C1373   1.549       .  S
C1367      C1371   1.540       .  S
C1367      C1493   1.531       .  S
C1368      H1375   1.086       .  S
C1368      C1369   1.363       .  D
C1369      C1370   1.532       .  S
C1369      C1419   1.441       .  S
C1370      C1374   1.530       .  S
C1370      C1372   1.532       .  S
C1370      H1376   1.112       .  S
C1371      H1377   1.086       .  S
C1371      C1372   1.365       .  D
C1372      C1421   1.440       .  S
C1373      H1378   1.083       .  S
C1373      C1374   1.361       .  D
C1374      C1436   1.441       .  S
C1379      C1380   1.543       .  S
C1379      C1385   1.550       .  S
C1379      C1383   1.540       .  S
C1379      C1463   1.528       .  S
C1380      H1387   1.086       .  S
C1380      C1381   1.363       .  D
C1381      C1382   1.532       .  S
C1381      C1424   1.441       .  S
C1382      C1386   1.530       .  S
C1382      C1384   1.532       .  S
C1382      H1388   1.112       .  S
C1383      H1389   1.086       .  S
C1383      C1384   1.363       .  D
C1384      C1417   1.441       .  S
C1385      H1390   1.082       .  S
C1385      C1386   1.362       .  D
C1386      C1420   1.442       .  S
C1391      C1392   1.546       .  S
C1391      C1397   1.546       .  S
C1391      C1395   1.540       .  S
C1391      C1513   1.529       .  S
C1392      H1399   1.086       .  S
C1392      C1393   1.364       .  D
C1393      C1394   1.533       .  S
C1393      C1415   1.443       .  S
C1394      C1398   1.530       .  S
C1394      C1396   1.533       .  S
C1394      H1400   1.112       .  S
C1395      H1401   1.086       .  S
C1395      C1396   1.364       .  D
C1396      C1418   1.442       .  S
C1397      H1402   1.085       .  S
C1397      C1398   1.361       .  D
C1398      C1428   1.439       .  S
C1403      C1404   1.548       .  S
C1403      C1409   1.544       .  S
C1403      C1407   1.538       .  S
C1403      C1483   1.526       .  S
C1404      H1411   1.083       .  S
C1404      C1405   1.363       .  D
C1405      C1406   1.533       .  S
C1405      C1432   1.443       .  S
C1406      C1410   1.533       .  S
C1406      C1408   1.533       .  S
C1406      H1412   1.112       .  S
C1407      H1413   1.087       .  S
C1407      C1408   1.361       .  D
C1408      C1422   1.440       .  S
C1409      H1414   1.086       .  S
C1409      C1410   1.363       .  D
C1410      C1416   1.443       .  S
C1415      C1416   1.206       .  T
C1417      C1418   1.206       .  T
C1419      C1420   1.206       .  T
C1421      C1422   1.205       .  T
C1423      C1424   1.205       .  T
C1425      C1426   1.206       .  T
C1427      C1428   1.204       .  T
C1429      C1430   1.204       .  T
C1431      C1432   1.206       .  T
C1433      C1434   1.207       .  T
C1435      C1436   1.206       .  T
C1437      C1438   1.205       .  T
C1439      H1445   1.083       .  S
C1439      C1440   1.403       .  A
C1439      C1444   1.399       .  A
C1440      C1441   1.404       .  A
C1441      H1446   1.082       .  S
C1441      C1442   1.399       .  A
C1442      H1447   1.079       .  S
C1442      C1443   1.410       .  A
C1443      C1444   1.410       .  A
C1444      H1448   1.083       .  S
C1449      H1455   1.082       .  S
C1449      C1450   1.403       .  A
C1449      C1454   1.400       .  A
C1450      C1451   1.403       .  A
C1451      H1456   1.083       .  S
C1451      C1452   1.398       .  A
C1452      H1457   1.080       .  S
C1452      C1453   1.410       .  A
C1453      C1454   1.410       .  A
C1454      H1458   1.083       .  S
C1459      H1465   1.082       .  S
C1459      C1460   1.403       .  A
C1459      C1464   1.399       .  A
C1460      C1461   1.402       .  A
C1461      H1466   1.083       .  S
C1461      C1462   1.397       .  A
C1462      H1467   1.077       .  S
C1462      C1463   1.410       .  A
C1463      C1464   1.410       .  A
C1464      H1468   1.083       .  S
C1469      H1475   1.082       .  S
C1469      C1470   1.403       .  A
C1469      C1474   1.399       .  A
C1470      C1471   1.402       .  A
C1471      H1476   1.083       .  S
C1471      C1472   1.397       .  A
C1472      H1477   1.078       .  S
C1472      C1473   1.411       .  A
C1473      C1474   1.409       .  A
C1474      H1478   1.083       .  S
C1479      H1485   1.083       .  S
C1479      C1480   1.403       .  A
C1479      C1484   1.397       .  A
C1480      C1481   1.402       .  A
C1481      H1486   1.082       .  S
C1481      C1482   1.398       .  A
C1482      H1487   1.083       .  S
C1482      C1483   1.409       .  A
C1483      C1484   1.410       .  A
C1484      H1488   1.078       .  S
C1489      H1495   1.082       .  S
C1489      C1490   1.404       .  A
C1489      C1494   1.401       .  A
C1490      C1491   1.402       .  A
C1491      H1496   1.083       .  S
C1491      C1492   1.397       .  A
C1492      H1497   1.079       .  S
C1492      C1493   1.410       .  A
C1493      C1494   1.410       .  A
C1494      H1498   1.083       .  S
C1499      H1505   1.082       .  S
C1499      C1500   1.402       .  A
C1499      C1504   1.398       .  A
C1500      C1501   1.403       .  A
C1501      H1506   1.083       .  S
C1501      C1502   1.397       .  A
C1502      H1507   1.077       .  S
C1502      C1503   1.410       .  A
C1503      C1504   1.409       .  A
C1504      H1508   1.083       .  S
C1509      H1515   1.082       .  S
C1509      C1510   1.402       .  A
C1509      C1514   1.398       .  A
C1510      C1511   1.404       .  A
C1511      H1516   1.083       .  S
C1511      C1512   1.399       .  A
C1512      H1517   1.082       .  S
C1512      C1513   1.409       .  A
C1513      C1514   1.411       .  A
C1514      H1518   1.080       .  S
C1519      N1537   1.350       .  A
C1519      C1556   1.465       .  S
C1519      C1763   1.481       .  S
N1520      N1537   1.324       .  A
N1520      N1542   1.320       .  A
N1520     Co1557   2.082   1_565  S
C1521      N1546   1.342       .  A
C1521      C1559   1.463       .  S
C1521      H1566   1.081       .  S
H1522      C1563   1.081       .  S
C1523      N1547   1.341       .  A
C1523      C1527   1.463       .  S
C1523      H1552   1.081       .  S
Co1524     N1817   2.079       .  S
Co1524     N1540   2.088       .  S
N1525      C1563   1.341       .  A
N1525      N1532   1.320       .  A
Co1526     N1533   2.088       .  S
Co1526    Cl1821   2.452       .  S
C1527      N1565   1.350       .  A
C1527      C1753   1.477       .  S
N1528      N1535   1.319       .  A
N1528      N1558   1.324       .  A
N1528     Co1561   2.085       .  S
N1529      N1547   1.320       .  A
N1529      N1565   1.323       .  A
N1530      C1559   1.351       .  A
N1530      N1540   1.324       .  A
H1531      C1556   1.081       .  S
N1532      N1553   1.323       .  A
N1533      N1551   1.320       .  A
N1533      N1538   1.325       .  A
C1534      N1538   1.352       .  A
C1534      C1562   1.463       .  S
C1534      C1693   1.482       .  S
N1535      C1550   1.343       .  A
C1536      N1564   1.340       .  A
C1536      C1539   1.461       .  S
C1536      H1570   1.081       .  S
C1539      N1560   1.351       .  A
C1539      C1713   1.478       .  S
N1540      N1546   1.319       .  A
N1541      C1567   1.341       .  A
N1541      N1543   1.320       .  A
N1542      C1556   1.342       .  A
N1543      N1571   1.324       .  A
H1544      C1567   1.081       .  S
H1545      C1562   1.081       .  S
N1547     Co1814   2.086       .  S
N1548      N1560   1.324       .  A
N1548      N1564   1.319       .  A
C1549      N1553   1.350       .  A
C1549      C1563   1.462       .  S
C1549      C1733   1.478       .  S
C1550      C1569   1.464       .  S
C1550      H1554   1.081       .  S
N1551      C1562   1.341       .  A
C1555      N1571   1.352       .  A
C1555      C1567   1.461       .  S
C1555      C1723   1.479       .  S
N1558      C1569   1.351       .  A
C1559      C1743   1.481       .  S
Co1561     N1800   2.086   1_554  S
N1564     Co1777   2.079   1_554  S
Cl1568    Co1779   2.452       .  S
C1569      C1703   1.482       .  S
C1572      C1573   1.549       .  S
C1572      C1578   1.545       .  S
C1572      C1576   1.539       .  S
C1572      C1696   1.530       .  S
C1573      H1580   1.084       .  S
C1573      C1574   1.363       .  D
C1574      C1575   1.530       .  S
C1574      C1688   1.442       .  S
C1575      C1579   1.532       .  S
C1575      C1577   1.532       .  S
C1575      H1581   1.112       .  S
C1576      H1582   1.086       .  S
C1576      C1577   1.363       .  D
C1577      C1690   1.440       .  S
C1578      H1583   1.086       .  S
C1578      C1579   1.363       .  D
C1579      C1686   1.443       .  S
C1584      C1585   1.548       .  S
C1584      C1590   1.544       .  S
C1584      C1588   1.540       .  S
C1584      C1756   1.527       .  S
C1585      H1592   1.082       .  S
C1585      C1586   1.362       .  D
C1586      C1587   1.530       .  S
C1586      C1682   1.438       .  S
C1587      C1591   1.532       .  S
C1587      C1589   1.532       .  S
C1587      H1593   1.112       .  S
C1588      H1594   1.086       .  S
C1588      C1589   1.363       .  D
C1589      C1691   1.440       .  S
C1590      H1595   1.086       .  S
C1590      C1591   1.363       .  D
C1591      C1684   1.443       .  S
C1596      C1597   1.548       .  S
C1596      C1602   1.545       .  S
C1596      C1600   1.541       .  S
C1596      C1706   1.530       .  S
C1597      H1604   1.084       .  S
C1597      C1598   1.362       .  D
C1598      C1599   1.529       .  S
C1598      C1680   1.439       .  S
C1599      C1603   1.529       .  S
C1599      C1601   1.531       .  S
C1599      H1605   1.112       .  S
C1600      H1606   1.086       .  S
C1600      C1601   1.366       .  D
C1601      C1678   1.442       .  S
C1602      H1607   1.086       .  S
C1602      C1603   1.361       .  D
C1603      C1683   1.438       .  S
C1608      C1609   1.546       .  S
C1608      C1614   1.548       .  S
C1608      C1612   1.539       .  S
C1608      C1726   1.529       .  S
C1609      H1616   1.086       .  S
C1609      C1610   1.365       .  D
C1610      C1611   1.533       .  S
C1610      C1687   1.443       .  S
C1611      C1615   1.531       .  S
C1611      C1613   1.533       .  S
C1611      H1617   1.112       .  S
C1612      H1618   1.087       .  S
C1612      C1613   1.362       .  D
C1613      C1679   1.442       .  S
C1614      H1619   1.083       .  S
C1614      C1615   1.362       .  D
C1615      C1676   1.441       .  S
C1620      C1621   1.545       .  S
C1620      C1626   1.549       .  S
C1620      C1624   1.540       .  S
C1620      C1746   1.531       .  S
C1621      H1628   1.086       .  S
C1621      C1622   1.363       .  D
C1622      C1623   1.532       .  S
C1622      C1672   1.441       .  S
C1623      C1627   1.530       .  S
C1623      C1625   1.532       .  S
C1623      H1629   1.112       .  S
C1624      H1630   1.086       .  S
C1624      C1625   1.365       .  D
C1625      C1674   1.440       .  S
C1626      H1631   1.083       .  S
C1626      C1627   1.361       .  D
C1627      C1689   1.441       .  S
C1632      C1633   1.543       .  S
C1632      C1638   1.550       .  S
C1632      C1636   1.540       .  S
C1632      C1716   1.528       .  S
C1633      H1640   1.086       .  S
C1633      C1634   1.363       .  D
C1634      C1635   1.532       .  S
C1634      C1677   1.441       .  S
C1635      C1639   1.530       .  S
C1635      C1637   1.532       .  S
C1635      H1641   1.112       .  S
C1636      H1642   1.086       .  S
C1636      C1637   1.363       .  D
C1637      C1670   1.441       .  S
C1638      H1643   1.082       .  S
C1638      C1639   1.362       .  D
C1639      C1673   1.442       .  S
C1644      C1645   1.546       .  S
C1644      C1650   1.546       .  S
C1644      C1648   1.540       .  S
C1644      C1766   1.529       .  S
C1645      H1652   1.086       .  S
C1645      C1646   1.364       .  D
C1646      C1647   1.533       .  S
C1646      C1668   1.443       .  S
C1647      C1651   1.530       .  S
C1647      C1649   1.533       .  S
C1647      H1653   1.112       .  S
C1648      H1654   1.086       .  S
C1648      C1649   1.364       .  D
C1649      C1671   1.442       .  S
C1650      H1655   1.085       .  S
C1650      C1651   1.361       .  D
C1651      C1681   1.439       .  S
C1656      C1657   1.548       .  S
C1656      C1662   1.544       .  S
C1656      C1660   1.538       .  S
C1656      C1736   1.526       .  S
C1657      H1664   1.083       .  S
C1657      C1658   1.363       .  D
C1658      C1659   1.533       .  S
C1658      C1685   1.443       .  S
C1659      C1663   1.533       .  S
C1659      C1661   1.533       .  S
C1659      H1665   1.112       .  S
C1660      H1666   1.087       .  S
C1660      C1661   1.361       .  D
C1661      C1675   1.440       .  S
C1662      H1667   1.086       .  S
C1662      C1663   1.363       .  D
C1663      C1669   1.443       .  S
C1668      C1669   1.206       .  T
C1670      C1671   1.206       .  T
C1672      C1673   1.206       .  T
C1674      C1675   1.205       .  T
C1676      C1677   1.205       .  T
C1678      C1679   1.206       .  T
C1680      C1681   1.204       .  T
C1682      C1683   1.204       .  T
C1684      C1685   1.206       .  T
C1686      C1687   1.207       .  T
C1688      C1689   1.206       .  T
C1690      C1691   1.205       .  T
C1692      H1698   1.083       .  S
C1692      C1693   1.403       .  A
C1692      C1697   1.399       .  A
C1693      C1694   1.404       .  A
C1694      H1699   1.082       .  S
C1694      C1695   1.399       .  A
C1695      H1700   1.079       .  S
C1695      C1696   1.410       .  A
C1696      C1697   1.410       .  A
C1697      H1701   1.083       .  S
C1702      H1708   1.082       .  S
C1702      C1703   1.403       .  A
C1702      C1707   1.400       .  A
C1703      C1704   1.403       .  A
C1704      H1709   1.083       .  S
C1704      C1705   1.398       .  A
C1705      H1710   1.080       .  S
C1705      C1706   1.410       .  A
C1706      C1707   1.410       .  A
C1707      H1711   1.083       .  S
C1712      H1718   1.082       .  S
C1712      C1713   1.403       .  A
C1712      C1717   1.399       .  A
C1713      C1714   1.402       .  A
C1714      H1719   1.083       .  S
C1714      C1715   1.397       .  A
C1715      H1720   1.077       .  S
C1715      C1716   1.410       .  A
C1716      C1717   1.410       .  A
C1717      H1721   1.083       .  S
C1722      H1728   1.082       .  S
C1722      C1723   1.403       .  A
C1722      C1727   1.399       .  A
C1723      C1724   1.402       .  A
C1724      H1729   1.083       .  S
C1724      C1725   1.397       .  A
C1725      H1730   1.078       .  S
C1725      C1726   1.411       .  A
C1726      C1727   1.409       .  A
C1727      H1731   1.083       .  S
C1732      H1738   1.083       .  S
C1732      C1733   1.403       .  A
C1732      C1737   1.397       .  A
C1733      C1734   1.402       .  A
C1734      H1739   1.082       .  S
C1734      C1735   1.398       .  A
C1735      H1740   1.083       .  S
C1735      C1736   1.409       .  A
C1736      C1737   1.410       .  A
C1737      H1741   1.078       .  S
C1742      H1748   1.082       .  S
C1742      C1743   1.404       .  A
C1742      C1747   1.401       .  A
C1743      C1744   1.402       .  A
C1744      H1749   1.083       .  S
C1744      C1745   1.397       .  A
C1745      H1750   1.079       .  S
C1745      C1746   1.410       .  A
C1746      C1747   1.410       .  A
C1747      H1751   1.083       .  S
C1752      H1758   1.082       .  S
C1752      C1753   1.402       .  A
C1752      C1757   1.398       .  A
C1753      C1754   1.403       .  A
C1754      H1759   1.083       .  S
C1754      C1755   1.397       .  A
C1755      H1760   1.077       .  S
C1755      C1756   1.410       .  A
C1756      C1757   1.409       .  A
C1757      H1761   1.083       .  S
C1762      H1768   1.082       .  S
C1762      C1763   1.402       .  A
C1762      C1767   1.398       .  A
C1763      C1764   1.404       .  A
C1764      H1769   1.083       .  S
C1764      C1765   1.399       .  A
C1765      H1770   1.082       .  S
C1765      C1766   1.409       .  A
C1766      C1767   1.411       .  A
C1767      H1771   1.080       .  S
C1772      N1790   1.350       .  A
C1772      C1809   1.465       .  S
C1772      C2016   1.481       .  S
N1773      N1790   1.324       .  A
N1773      N1795   1.320       .  A
N1773     Co1810   2.082   1_565  S
C1774      N1799   1.342       .  A
C1774      C1812   1.463       .  S
C1774      H1819   1.081       .  S
H1775      C1816   1.081       .  S
C1776      N1800   1.341       .  A
C1776      C1780   1.463       .  S
C1776      H1805   1.081       .  S
Co1777     N1793   2.088       .  S
N1778      C1816   1.341       .  A
N1778      N1785   1.320       .  A
Co1779     N1786   2.088       .  S
C1780      N1818   1.350       .  A
C1780      C2006   1.477       .  S
N1781      N1788   1.319       .  A
N1781      N1811   1.324       .  A
N1781     Co1814   2.085       .  S
N1782      N1800   1.320       .  A
N1782      N1818   1.323       .  A
N1783      C1812   1.351       .  A
N1783      N1793   1.324       .  A
H1784      C1809   1.081       .  S
N1785      N1806   1.323       .  A
N1786      N1804   1.320       .  A
N1786      N1791   1.325       .  A
C1787      N1791   1.352       .  A
C1787      C1815   1.463       .  S
C1787      C1946   1.482       .  S
N1788      C1803   1.343       .  A
C1789      N1817   1.340       .  A
C1789      C1792   1.461       .  S
C1789      H1823   1.081       .  S
C1792      N1813   1.351       .  A
C1792      C1966   1.478       .  S
N1793      N1799   1.319       .  A
N1794      C1820   1.341       .  A
N1794      N1796   1.320       .  A
N1795      C1809   1.342       .  A
N1796      N1824   1.324       .  A
H1797      C1820   1.081       .  S
H1798      C1815   1.081       .  S
N1801      N1813   1.324       .  A
N1801      N1817   1.319       .  A
C1802      N1806   1.350       .  A
C1802      C1816   1.462       .  S
C1802      C1986   1.478       .  S
C1803      C1822   1.464       .  S
C1803      H1807   1.081       .  S
N1804      C1815   1.341       .  A
C1808      N1824   1.352       .  A
C1808      C1820   1.461       .  S
C1808      C1976   1.479       .  S
N1811      C1822   1.351       .  A
C1812      C1996   1.481       .  S
C1822      C1956   1.482       .  S
C1825      C1826   1.549       .  S
C1825      C1831   1.545       .  S
C1825      C1829   1.539       .  S
C1825      C1949   1.530       .  S
C1826      H1833   1.084       .  S
C1826      C1827   1.363       .  D
C1827      C1828   1.530       .  S
C1827      C1941   1.442       .  S
C1828      C1832   1.532       .  S
C1828      C1830   1.532       .  S
C1828      H1834   1.112       .  S
C1829      H1835   1.086       .  S
C1829      C1830   1.363       .  D
C1830      C1943   1.440       .  S
C1831      H1836   1.086       .  S
C1831      C1832   1.363       .  D
C1832      C1939   1.443       .  S
C1837      C1838   1.548       .  S
C1837      C1843   1.544       .  S
C1837      C1841   1.540       .  S
C1837      C2009   1.527       .  S
C1838      H1845   1.082       .  S
C1838      C1839   1.362       .  D
C1839      C1840   1.530       .  S
C1839      C1935   1.438       .  S
C1840      C1844   1.532       .  S
C1840      C1842   1.532       .  S
C1840      H1846   1.112       .  S
C1841      H1847   1.086       .  S
C1841      C1842   1.363       .  D
C1842      C1944   1.440       .  S
C1843      H1848   1.086       .  S
C1843      C1844   1.363       .  D
C1844      C1937   1.443       .  S
C1849      C1850   1.548       .  S
C1849      C1855   1.545       .  S
C1849      C1853   1.541       .  S
C1849      C1959   1.530       .  S
C1850      H1857   1.084       .  S
C1850      C1851   1.362       .  D
C1851      C1852   1.529       .  S
C1851      C1933   1.439       .  S
C1852      C1856   1.529       .  S
C1852      C1854   1.531       .  S
C1852      H1858   1.112       .  S
C1853      H1859   1.086       .  S
C1853      C1854   1.366       .  D
C1854      C1931   1.442       .  S
C1855      H1860   1.086       .  S
C1855      C1856   1.361       .  D
C1856      C1936   1.438       .  S
C1861      C1862   1.546       .  S
C1861      C1867   1.548       .  S
C1861      C1865   1.539       .  S
C1861      C1979   1.529       .  S
C1862      H1869   1.086       .  S
C1862      C1863   1.365       .  D
C1863      C1864   1.533       .  S
C1863      C1940   1.443       .  S
C1864      C1868   1.531       .  S
C1864      C1866   1.533       .  S
C1864      H1870   1.112       .  S
C1865      H1871   1.087       .  S
C1865      C1866   1.362       .  D
C1866      C1932   1.442       .  S
C1867      H1872   1.083       .  S
C1867      C1868   1.362       .  D
C1868      C1929   1.441       .  S
C1873      C1874   1.545       .  S
C1873      C1879   1.549       .  S
C1873      C1877   1.540       .  S
C1873      C1999   1.531       .  S
C1874      H1881   1.086       .  S
C1874      C1875   1.363       .  D
C1875      C1876   1.532       .  S
C1875      C1925   1.441       .  S
C1876      C1880   1.530       .  S
C1876      C1878   1.532       .  S
C1876      H1882   1.112       .  S
C1877      H1883   1.086       .  S
C1877      C1878   1.365       .  D
C1878      C1927   1.440       .  S
C1879      H1884   1.083       .  S
C1879      C1880   1.361       .  D
C1880      C1942   1.441       .  S
C1885      C1886   1.543       .  S
C1885      C1891   1.550       .  S
C1885      C1889   1.540       .  S
C1885      C1969   1.528       .  S
C1886      H1893   1.086       .  S
C1886      C1887   1.363       .  D
C1887      C1888   1.532       .  S
C1887      C1930   1.441       .  S
C1888      C1892   1.530       .  S
C1888      C1890   1.532       .  S
C1888      H1894   1.112       .  S
C1889      H1895   1.086       .  S
C1889      C1890   1.363       .  D
C1890      C1923   1.441       .  S
C1891      H1896   1.082       .  S
C1891      C1892   1.362       .  D
C1892      C1926   1.442       .  S
C1897      C1898   1.546       .  S
C1897      C1903   1.546       .  S
C1897      C1901   1.540       .  S
C1897      C2019   1.529       .  S
C1898      H1905   1.086       .  S
C1898      C1899   1.364       .  D
C1899      C1900   1.533       .  S
C1899      C1921   1.443       .  S
C1900      C1904   1.530       .  S
C1900      C1902   1.533       .  S
C1900      H1906   1.112       .  S
C1901      H1907   1.086       .  S
C1901      C1902   1.364       .  D
C1902      C1924   1.442       .  S
C1903      H1908   1.085       .  S
C1903      C1904   1.361       .  D
C1904      C1934   1.439       .  S
C1909      C1910   1.548       .  S
C1909      C1915   1.544       .  S
C1909      C1913   1.538       .  S
C1909      C1989   1.526       .  S
C1910      H1917   1.083       .  S
C1910      C1911   1.363       .  D
C1911      C1912   1.533       .  S
C1911      C1938   1.443       .  S
C1912      C1916   1.533       .  S
C1912      C1914   1.533       .  S
C1912      H1918   1.112       .  S
C1913      H1919   1.087       .  S
C1913      C1914   1.361       .  D
C1914      C1928   1.440       .  S
C1915      H1920   1.086       .  S
C1915      C1916   1.363       .  D
C1916      C1922   1.443       .  S
C1921      C1922   1.206       .  T
C1923      C1924   1.206       .  T
C1925      C1926   1.206       .  T
C1927      C1928   1.205       .  T
C1929      C1930   1.205       .  T
C1931      C1932   1.206       .  T
C1933      C1934   1.204       .  T
C1935      C1936   1.204       .  T
C1937      C1938   1.206       .  T
C1939      C1940   1.207       .  T
C1941      C1942   1.206       .  T
C1943      C1944   1.205       .  T
C1945      H1951   1.083       .  S
C1945      C1946   1.403       .  A
C1945      C1950   1.399       .  A
C1946      C1947   1.404       .  A
C1947      H1952   1.082       .  S
C1947      C1948   1.399       .  A
C1948      H1953   1.079       .  S
C1948      C1949   1.410       .  A
C1949      C1950   1.410       .  A
C1950      H1954   1.083       .  S
C1955      H1961   1.082       .  S
C1955      C1956   1.403       .  A
C1955      C1960   1.400       .  A
C1956      C1957   1.403       .  A
C1957      H1962   1.083       .  S
C1957      C1958   1.398       .  A
C1958      H1963   1.080       .  S
C1958      C1959   1.410       .  A
C1959      C1960   1.410       .  A
C1960      H1964   1.083       .  S
C1965      H1971   1.082       .  S
C1965      C1966   1.403       .  A
C1965      C1970   1.399       .  A
C1966      C1967   1.402       .  A
C1967      H1972   1.083       .  S
C1967      C1968   1.397       .  A
C1968      H1973   1.077       .  S
C1968      C1969   1.410       .  A
C1969      C1970   1.410       .  A
C1970      H1974   1.083       .  S
C1975      H1981   1.082       .  S
C1975      C1976   1.403       .  A
C1975      C1980   1.399       .  A
C1976      C1977   1.402       .  A
C1977      H1982   1.083       .  S
C1977      C1978   1.397       .  A
C1978      H1983   1.078       .  S
C1978      C1979   1.411       .  A
C1979      C1980   1.409       .  A
C1980      H1984   1.083       .  S
C1985      H1991   1.083       .  S
C1985      C1986   1.403       .  A
C1985      C1990   1.397       .  A
C1986      C1987   1.402       .  A
C1987      H1992   1.082       .  S
C1987      C1988   1.398       .  A
C1988      H1993   1.083       .  S
C1988      C1989   1.409       .  A
C1989      C1990   1.410       .  A
C1990      H1994   1.078       .  S
C1995      H2001   1.082       .  S
C1995      C1996   1.404       .  A
C1995      C2000   1.401       .  A
C1996      C1997   1.402       .  A
C1997      H2002   1.083       .  S
C1997      C1998   1.397       .  A
C1998      H2003   1.079       .  S
C1998      C1999   1.410       .  A
C1999      C2000   1.410       .  A
C2000      H2004   1.083       .  S
C2005      H2011   1.082       .  S
C2005      C2006   1.402       .  A
C2005      C2010   1.398       .  A
C2006      C2007   1.403       .  A
C2007      H2012   1.083       .  S
C2007      C2008   1.397       .  A
C2008      H2013   1.077       .  S
C2008      C2009   1.410       .  A
C2009      C2010   1.409       .  A
C2010      H2014   1.083       .  S
C2015      H2021   1.082       .  S
C2015      C2016   1.402       .  A
C2015      C2020   1.398       .  A
C2016      C2017   1.404       .  A
C2017      H2022   1.083       .  S
C2017      C2018   1.399       .  A
C2018      H2023   1.082       .  S
C2018      C2019   1.409       .  A
C2019      C2020   1.411       .  A
C2020      H2024   1.080       .  S
