geometry optimzed in LAMMPS
_audit_creation_date              2020-12-01 
_audit_creation_method            'lammps2cif' 
_symmetry_space_group_name_H-M    'P1' 
_symmetry_Int_Tables_number       1 
_symmetry_cell_setting            triclinic 
loop_ 
_symmetry_equiv_pos_as_xyz 
  x,y,z 
_cell_length_a                    35.65270847 
_cell_length_b                    35.65319429317372 
_cell_length_c                    28.260477646794133 
_cell_angle_alpha                 89.98925993721434 
_cell_angle_beta                  90.01048716037899 
_cell_angle_gamma                 119.99729494794015 
loop_ 
_atom_site_label 
_atom_site_type_symbol 
_atom_site_fract_x 
_atom_site_fract_y 
_atom_site_fract_z 
_atom_site_charge 
C1          C  0.49454284  0.71589862  0.09891055     0.82100
N2          N  0.49441839  0.71579376  0.14690891    -0.76200
C3          C  0.49446090  0.74873287  0.17110196     0.84500
N4          N  0.49458259  0.78173514  0.14697467    -0.76200
C5          C  0.49472368  0.78185728  0.09899696     0.84600
N6          N  0.49466095  0.74891624  0.07491632    -0.77900
C7          C  0.49474493  0.71602380  0.29523318     0.82100
N8          N  0.49458177  0.71589841  0.24723960    -0.76200
C9          C  0.49450566  0.74877445  0.22303085     0.84500
N10         N  0.49451767  0.78173805  0.24714561    -0.76200
C11         C  0.49466781  0.78185704  0.29513851     0.84600
N12         N  0.49474514  0.74897890  0.31920748    -0.77900
C13         C  0.25695679  0.77961480  0.29494049     0.82100
N14         N  0.25703520  0.77952138  0.24694043    -0.76200
C15         C  0.22406250  0.74659650  0.22278760     0.84500
N16         N  0.19104396  0.71376937  0.24695749    -0.76200
C17         C  0.19093248  0.71388392  0.29494567     0.84600
N18         N  0.22391507  0.74678233  0.31896367    -0.77900
C19         C  0.25670129  0.77980973  0.09875789     0.82100
N20         N  0.25682619  0.77961905  0.14672913    -0.76200
C21         C  0.22399360  0.74659802  0.17085856     0.84500
N22         N  0.19103319  0.71369939  0.14666992    -0.76200
C23         C  0.19087459  0.71388303  0.09866722     0.84600
N24         N  0.22374377  0.74693286  0.07467181    -0.77900
C25         C  0.19328580  0.47853036  0.09907522     0.82100
N26         N  0.22628476  0.47867935  0.07500000    -0.76200
C27         C  0.25936552  0.47889991  0.09899964     0.84500
N28         N  0.25948219  0.47903767  0.14698491    -0.76200
C29         C  0.22651924  0.47891449  0.17117976     0.84600
N30         N  0.19343522  0.47867476  0.14706551    -0.77900
C31         C  0.19302046  0.47794595  0.29512921     0.82100
N32         N  0.22593880  0.47800133  0.31927046    -0.76200
C33         C  0.25911678  0.47838767  0.29534681     0.84500
N34         N  0.25940884  0.47882321  0.24734283    -0.76200
C35         C  0.22647469  0.47877352  0.22309710     0.84600
N36         N  0.19330395  0.47834090  0.24716178    -0.77900
C37         C  0.76961993  0.26683315  0.29506702     0.82100
N38         N  0.73597465  0.23462471  0.31918589    -0.76200
C39         C  0.70222186  0.20245967  0.29513845     0.84500
N40         N  0.70216186  0.20256518  0.24715213    -0.76200
C41         C  0.73576119  0.23475711  0.22299746     0.84600
N42         N  0.76943511  0.26686952  0.24711163    -0.77900
C43         C  0.77017325  0.26674173  0.09917256     0.82100
N44         N  0.76973668  0.26683194  0.14713231    -0.76200
C45         C  0.73592948  0.23472693  0.17111995     0.84500
N46         N  0.70247793  0.20250336  0.14683707    -0.76200
C47         C  0.70282170  0.20235816  0.09885741     0.84600
N48         N  0.73667190  0.23450947  0.07494441    -0.77900
C49         C  0.70609100  0.50439595  0.09908802     0.82100
N50         N  0.73819183  0.50268109  0.07507201    -0.73200
C51         C  0.77022988  0.50092624  0.09919376     0.84500
N52         N  0.77009376  0.50083815  0.14717304    -0.76200
C53         C  0.73801365  0.50251718  0.17125373     0.84600
N54         N  0.70602692  0.50427597  0.14706104    -0.77900
C55         C  0.70598422  0.50450631  0.29519227     0.82100
N56         N  0.70590164  0.50420452  0.24722300    -0.76200
C57         C  0.73805139  0.50268358  0.22313355     0.84500
N58         N  0.77030187  0.50142249  0.24731326    -0.76200
C59         C  0.77046490  0.50169197  0.29528015     0.84600
N60         N  0.73825970  0.50319460  0.31932595    -0.77900
C61         C  0.46861214  0.20246410  0.29529813     0.82100
N62         N  0.46913996  0.20295606  0.24734560    -0.76200
C63         C  0.47086787  0.23680575  0.22343229     0.84500
N64         N  0.47212271  0.27023366  0.24777043    -0.76200
C65         C  0.47167042  0.26985989  0.29574120     0.84600
N66         N  0.46992901  0.23595654  0.31960068    -0.77900
C67         C  0.46922222  0.20321870  0.09946348     0.82100
N68         N  0.46951213  0.20340008  0.14741551    -0.76200
C69         C  0.47100274  0.23701687  0.17157622     0.84500
N70         N  0.47224070  0.27057034  0.14748612    -0.76200
C71         C  0.47199827  0.27052247  0.09950100     0.84600
N72         N  0.47050308  0.23682946  0.07540287    -0.77900
O73         O  0.52072807  0.60473015  0.03985322    -0.73400
O74         O  0.46168793  0.59533191  0.49819810    -0.52300
C75         C  0.49198703  0.61497119  0.02877345     0.80300
O76         O  0.59413764  0.53162759  0.35269314    -0.58000
O77         O  0.58652400  0.47375162  0.39535249    -0.51000
C78         C  0.60523372  0.50355017  0.36407616     0.72300
O79         O  0.52087704  0.60478730  0.35430417    -0.72600
O80         O  0.46188766  0.59544741  0.39600574    -0.53100
C81         C  0.49217446  0.61507476  0.36541304     0.78300
O82         O  0.59442520  0.53181339  0.04131477    -0.57700
O83         O  0.58661192  0.47373775  0.49892227    -0.50800
C84         C  0.60549743  0.50370207  0.02999583     0.74900
Zr85       Zr  0.53894783  0.54945425  0.01780420     2.54700
O86         O  0.60688589  0.61802686  0.01671657    -0.78300
O87         O  0.53742488  0.54820769  0.10396401    -0.91700
Zr88       Zr  0.53920840  0.54974218  0.37700349     2.64700
O89         O  0.60666202  0.61862452  0.38214897    -0.96700
O90         O  0.53940883  0.55073136  0.29088088    -0.78700
O91         O  0.51849137  0.57091355  0.44736438    -0.82100
O92         O  0.56115748  0.52992810  0.44738117    -2.16800
O93         O  0.44758913  0.38338801  0.04180107    -0.65500
O94         O  0.50540651  0.39152828  0.49866265    -0.50000
C95         C  0.47587550  0.37265296  0.03020355     0.73300
O96         O  0.37133412  0.45327377  0.35459672    -0.58400
O97         O  0.37952259  0.51193953  0.39609304    -0.50300
C98         C  0.36029139  0.48144982  0.36563713     0.75100
O99         O  0.44750657  0.38294174  0.35276321    -0.69800
O100        O  0.50564427  0.39159390  0.39566884    -0.48400
C101        C  0.47592124  0.37237836  0.36439875     0.76500
O102        O  0.37185779  0.45424055  0.04006565    -0.65100
O103        O  0.37990407  0.51272330  0.49831495    -0.52300
C104        C  0.36083454  0.48242855  0.02900299     0.74900
Zr105      Zr  0.42789807  0.43718220  0.01753374     2.77500
O106        O  0.36007965  0.36848462  0.01526837    -0.95800
O107        O  0.42844860  0.43874037  0.10364928    -0.76700
Zr108      Zr  0.42813119  0.43712521  0.37651249     2.70100
O109        O  0.36149303  0.36738341  0.37905553    -0.77900
O110        O  0.42848479  0.43939867  0.29035838    -0.97000
Zr111      Zr  0.44149567  0.53377967  0.44706825     2.21500
Zr112      Zr  0.52535698  0.45283584  0.44717588     2.11100
O113        O  0.44830341  0.41583280  0.44710114    -2.45700
O114        O  0.40587548  0.45680212  0.44693086    -0.77700
O115        O  0.50471404  0.47272360  0.01881134    -0.69900
O116        O  0.46240156  0.51384835  0.37551916    -2.30900
O117        O  0.46216558  0.51382628  0.01877614    -2.27100
O118        O  0.50496264  0.47294892  0.37552588    -0.71700
H119        H  0.59220039  0.54241179  0.44744394     0.80300
H120        H  0.45285224  0.52307187  0.34815022     0.81400
H121        H  0.43637991  0.38484156  0.44708266     0.83600
H122        H  0.45251580  0.52304271  0.04605524     0.81300
H123        H  0.52496811  0.51981603  0.28168146     0.44300
H124        H  0.45545869  0.43981993  0.28101817     0.43300
H125        H  0.34576554  0.36929376  0.40698216     0.42900
H126        H  0.36606725  0.34954050  0.49481893     0.40900
H127        H  0.45917004  0.45008075  0.11232102     0.44000
H128        H  0.50830078  0.54311087  0.11245456     0.38800
H129        H  0.60629474  0.63173509  0.48646981     0.44900
H130        H  0.62695799  0.61197258  0.39907173     0.41300
H131        H  0.35707761  0.35634296  0.04746706     0.46200
H132        H  0.55743440  0.57858721  0.11340352     0.45000
H133        H  0.61767684  0.62486251  0.34926175     0.45100
H134        H  0.40495412  0.41036727  0.28075563     0.45500
O135        O  0.05376811  0.60112281  0.35382345    -0.73400
O136        O  0.10431973  0.59329489  0.39563938    -0.52300
C137        C  0.09300029  0.61237220  0.36500836     0.80300
O138        O  0.90747304  0.52550358  0.04118353    -0.58000
O139        O  0.85775689  0.46735430  0.49845968    -0.51000
C140        C  0.86843355  0.49704580  0.02980721     0.72300
O141        O  0.05384022  0.60143970  0.03931168    -0.72600
O142        O  0.10431894  0.59304234  0.49806666    -0.53100
C143        C  0.09305235  0.61235686  0.02843985     0.78300
O144        O  0.90752103  0.52519168  0.35221223    -0.57700
O145        O  0.85782221  0.46713615  0.39507527    -0.50800
C146        C  0.86850323  0.49686739  0.36376756     0.74900
Zr147      Zr  0.98090684  0.54439986  0.37605727     2.54700
O148        O  0.97890386  0.61158852  0.37858195    -0.78300
O149        O  0.98076923  0.54299522  0.28989122    -0.91700
Zr150      Zr  0.98094469  0.54502961  0.01693596     2.64700
O151        O  0.98052774  0.61304952  0.01319664    -0.96700
O152        O  0.98171099  0.54494955  0.10309535    -0.78700
O153        O  0.02275945  0.56670259  0.44646402    -0.82100
O154        O  0.93921558  0.52439563  0.44651704    -2.16800
O155        O  0.90883710  0.37861316  0.35237928    -0.65500
O156        O  0.85862657  0.38590916  0.39549729    -0.50000
C157        C  0.86967020  0.36736396  0.36398135     0.73300
O158        O  0.05535000  0.45173541  0.04013189    -0.58400
O159        O  0.10509651  0.51051127  0.49816615    -0.50300
C160        C  0.09437155  0.48033516  0.02895980     0.75100
O161        O  0.90912104  0.37864661  0.04155593    -0.69800
O162        O  0.85879481  0.38623949  0.49901100    -0.48400
C163        C  0.86993042  0.36750799  0.03023378     0.76500
O164        O  0.05539252  0.45138140  0.35433097    -0.65100
O165        O  0.10527697  0.51095022  0.39513634    -0.52300
C166        C  0.09443885  0.48032402  0.36493692     0.74900
Zr167      Zr  0.98202966  0.43334143  0.37672465     2.77500
O168        O  0.98257479  0.36534545  0.37946393    -0.95800
O169        O  0.98273857  0.43431562  0.29059990    -0.76700
Zr170      Zr  0.98210932  0.43401843  0.01762820     2.70100
O171        O  0.98162528  0.36554718  0.01613897    -0.77900
O172        O  0.98367730  0.43741257  0.10370369    -0.97000
Zr173      Zr  0.06420724  0.53122589  0.44670115     2.21500
Zr174      Zr  0.89904415  0.44732918  0.44696283     2.11100
O175        O  0.94038557  0.41160343  0.44721585    -2.45700
O176        O  0.02396981  0.45418795  0.44714983    -0.77700
O177        O  0.93958753  0.46761448  0.37535156    -0.69900
O178        O  0.02338052  0.51077187  0.01824241    -2.30900
O179        O  0.02334375  0.51013392  0.37510753    -2.27100
O180        O  0.93958796  0.46821749  0.01856489    -0.71700
H181        H  0.92020530  0.53635413  0.44635899     0.80300
H182        H  0.04220501  0.52039794  0.04557180     0.81400
H183        H  0.92183247  0.38054542  0.44738920     0.83600
H184        H  0.04212459  0.51959112  0.34774240     0.81300
H185        H  0.98998068  0.52312932  0.11165626     0.44300
H186        H  0.95651729  0.43679363  0.11262590     0.43300
H187        H  0.99835186  0.36728553  0.48744090     0.42900
H188        H  0.95657397  0.34548745  0.39804636     0.40900
H189        H  0.96929963  0.45186274  0.28196200     0.44000
H190        H  0.00702173  0.54176493  0.28114478     0.38800
H191        H  0.99602619  0.62681339  0.40698508     0.44900
H192        H  0.95546440  0.60687093  0.49287091     0.41300
H193        H  0.97566981  0.35405399  0.34670946     0.46200
H194        H  0.98731357  0.57239859  0.28041557     0.45000
H195        H  0.97175943  0.61673135  0.04532031     0.45100
H196        H  0.97928196  0.40891318  0.11387978     0.45500
O197        O  0.51851085  0.91852923  0.35445708    -0.73400
O198        O  0.46021709  0.86795273  0.39628782    -0.52300
C199        C  0.49049780  0.87928882  0.36555770     0.80300
O200        O  0.58989056  0.06536302  0.04133157    -0.58000
O201        O  0.58152302  0.11495776  0.49828691    -0.51000
C202        C  0.60059941  0.10435258  0.02963695     0.72300
O203        O  0.51917263  0.91910673  0.04047769    -0.72600
O204        O  0.46107033  0.86857212  0.49832901    -0.53100
C205        C  0.49125875  0.87989117  0.02918862     0.78300
O206        O  0.58926324  0.06528279  0.35274724    -0.57700
O207        O  0.58069119  0.11495650  0.39538807    -0.50800
C208        C  0.59978452  0.10431158  0.36412163     0.74900
Zr209      Zr  0.53533970  0.99165970  0.37656615     2.54700
O210        O  0.60413821  0.99281243  0.37858640    -0.78300
O211        O  0.53452778  0.99129891  0.29038262    -0.91700
Zr212      Zr  0.53583460  0.99189869  0.01746800     2.64700
O213        O  0.60450461  0.99274997  0.01434289    -0.96700
O214        O  0.53446616  0.99064978  0.10357704    -0.78700
O215        O  0.51597652  0.94994964  0.44709346    -0.82100
O216        O  0.55694383  0.03346288  0.44694268    -2.16800
O217        O  0.44088003  0.06324784  0.35288658    -0.65500
O218        O  0.49848695  0.11358425  0.39581367    -0.50000
C219        C  0.46879535  0.10242683  0.36438997     0.73300
O220        O  0.36801692  0.91726897  0.03997638    -0.58400
O221        O  0.37799252  0.86754471  0.49923717    -0.50300
C222        C  0.35807394  0.87827730  0.02936408     0.75100
O223        O  0.44121863  0.06371504  0.04186235    -0.69800
O224        O  0.49940102  0.11389372  0.49954676    -0.48400
C225        C  0.46948899  0.10290069  0.03066637     0.76500
O226        O  0.36776646  0.91678461  0.35479408    -0.65100
O227        O  0.37765676  0.86714446  0.39584691    -0.52300
C228        C  0.35780929  0.87779866  0.36550558     0.74900
Zr229      Zr  0.42296119  0.99024366  0.37705386     2.77500
O230        O  0.35413732  0.98912941  0.37987115    -0.95800
O231        O  0.42433982  0.98994042  0.29092450    -0.76700
Zr232      Zr  0.42348731  0.99059060  0.01786765     2.70100
O233        O  0.35530896  0.99069973  0.01557914    -0.77900
O234        O  0.42422978  0.98802361  0.10391884    -0.97000
Zr235      Zr  0.43902655  0.90853518  0.44732555     2.21500
Zr236      Zr  0.51986542  0.07348515  0.44730283     2.11100
O237        O  0.44281456  0.03211669  0.44738382    -2.45700
O238        O  0.40194564  0.94847519  0.44755474    -0.77700
O239        O  0.49967285  0.03279916  0.37578066    -0.69900
O240        O  0.45919184  0.94952606  0.01873121    -2.30900
O241        O  0.45866183  0.94917000  0.37563306    -2.27100
O242        O  0.50022428  0.03313673  0.01901703    -0.71700
H243        H  0.58792399  0.05250725  0.44677060     0.80300
H244        H  0.45005734  0.93081342  0.04613692     0.81400
H245        H  0.43025552  0.05063777  0.44747965     0.83600
H246        H  0.44933191  0.93032586  0.34833905     0.81300
H247        H  0.51576267  0.00277043  0.11224181     0.44300
H248        H  0.45096778  0.01478892  0.11329776     0.43300
H249        H  0.34080256  0.97438408  0.48649650     0.42900
H250        H  0.36085022  0.01684256  0.39500831     0.40900
H251        H  0.45517957  0.00130993  0.28281357     0.44000
H252        H  0.50579043  0.96672650  0.28168304     0.38800
H253        H  0.60324149  0.97784613  0.40843945     0.44900
H254        H  0.62438364  0.01962797  0.49705504     0.41300
H255        H  0.34785277  0.99235167  0.34646319     0.46200
H256        H  0.55524578  0.98171531  0.28130794     0.45000
H257        H  0.61520102  0.99839106  0.04737169     0.45100
H258        H  0.40040093  0.99293386  0.11386653     0.45500
C259        C  0.47425293  0.33645670  0.05430837    -0.11400
C260        C  0.47317865  0.30613115  0.07447212    -0.13000
C261        C  0.46787440  0.16748513  0.07451878    -0.11400
C262        C  0.46770160  0.13743282  0.05472185    -0.13000
C263        C  0.47417137  0.33592082  0.34079263    -0.11400
C264        C  0.47297038  0.30541655  0.32094264    -0.13000
C265        C  0.46709312  0.16663626  0.32006738    -0.11400
C266        C  0.46691840  0.13674022  0.34013678    -0.13000
C267        C  0.64155432  0.50548903  0.34001414    -0.11400
C268        C  0.67150070  0.50560114  0.32011418    -0.13000
C269        C  0.80474180  0.50023694  0.32027385    -0.11400
C270        C  0.83395550  0.49881829  0.34006417    -0.13000
C271        C  0.64193264  0.50574745  0.05397977    -0.11400
C272        C  0.67180295  0.50577912  0.07400983    -0.13000
C273        C  0.83384606  0.49859431  0.05397556    -0.11400
C274        C  0.80457379  0.49958709  0.07418206    -0.13000
C275        C  0.66730640  0.16809562  0.07363392    -0.11400
C276        C  0.63695544  0.13893022  0.05345946    -0.13000
C277        C  0.83561912  0.33113224  0.05433188    -0.11400
C278        C  0.80584431  0.30119158  0.07431921    -0.13000
C279        C  0.63607696  0.13892285  0.34019275    -0.11400
C280        C  0.66653109  0.16816838  0.32019570    -0.13000
C281        C  0.80530825  0.30122238  0.31997784    -0.11400
C282        C  0.83523902  0.33109249  0.33987179    -0.13000
C283        C  0.32382215  0.47911856  0.34149812    -0.11400
C284        C  0.29397520  0.47844894  0.32073226    -0.13000
C285        C  0.15806698  0.47787567  0.32020845    -0.11400
C286        C  0.12880885  0.47851272  0.34076586    -0.13000
C287        C  0.29441326  0.47926008  0.07376594    -0.11400
C288        C  0.32444486  0.48016784  0.05319891    -0.13000
C289        C  0.15826938  0.47837576  0.07389006    -0.11400
C290        C  0.12888660  0.47875387  0.05322151    -0.13000
C291        C  0.12712764  0.64885523  0.05262433    -0.11400
C292        C  0.15615196  0.67886657  0.07336611    -0.13000
C293        C  0.29174063  0.81457793  0.07365656    -0.11400
C294        C  0.32181214  0.84382242  0.05330578    -0.13000
C295        C  0.12703685  0.64895951  0.34089744    -0.11400
C296        C  0.15611244  0.67896042  0.32020895    -0.13000
C297        C  0.29198750  0.81427297  0.32025493    -0.11400
C298        C  0.32178937  0.84332806  0.34118408    -0.13000
C299        C  0.49382205  0.65122539  0.34130410    -0.11400
C300        C  0.49451158  0.68107789  0.32055923    -0.13000
C301        C  0.49413184  0.81645622  0.32038373    -0.11400
C302        C  0.49295682  0.84531637  0.34123776    -0.13000
C303        C  0.49362407  0.65109942  0.05288555    -0.11400
C304        C  0.49429463  0.68094151  0.07361242    -0.13000
C305        C  0.49367663  0.84583560  0.05333784    -0.11400
C306        C  0.49455414  0.81667642  0.07385496    -0.13000
C307        C  0.49454297  0.71589864  0.59891051     0.82100
N308        N  0.49441823  0.71579365  0.64690886    -0.76200
C309        C  0.49446044  0.74873262  0.67110189     0.84500
N310        N  0.49458213  0.78173489  0.64697460    -0.76200
C311        C  0.49472351  0.78185717  0.59899688     0.84600
N312        N  0.49466108  0.74891627  0.57491627    -0.77900
C313        C  0.49474507  0.71602392  0.79523317     0.82100
N314        N  0.49458159  0.71589834  0.74723958    -0.76200
C315        C  0.49450521  0.74877421  0.72303078     0.84500
N316        N  0.49451721  0.78173783  0.74714549    -0.76200
C317        C  0.49466769  0.78185704  0.79513836     0.84600
N318        N  0.49474535  0.74897909  0.81920740    -0.77900
C319        C  0.25695675  0.77961470  0.79494043     0.82100
N320        N  0.25703527  0.77952121  0.74694039    -0.76200
C321        C  0.22406265  0.74659631  0.72278753     0.84500
N322        N  0.19104407  0.71376918  0.74695738    -0.76200
C323        C  0.19093250  0.71388376  0.79494555     0.84600
N324        N  0.22391501  0.74678223  0.81896359    -0.77900
C325        C  0.25670128  0.77980981  0.59875786     0.82100
N326        N  0.25682636  0.77961899  0.64672908    -0.76200
C327        C  0.22399387  0.74659785  0.67085851     0.84500
N328        N  0.19103343  0.71369929  0.64666989    -0.76200
C329        C  0.19087465  0.71388309  0.59866722     0.84600
N330        N  0.22374369  0.74693300  0.57467177    -0.77900
C331        C  0.19328585  0.47853071  0.59907561     0.82100
N332        N  0.22628468  0.47867960  0.57500021    -0.76200
C333        C  0.25936547  0.47890006  0.59899968     0.84500
N334        N  0.25948227  0.47903780  0.64698497    -0.76200
C335        C  0.22651937  0.47891462  0.67117997     0.84600
N336        N  0.19343537  0.47867500  0.64706586    -0.77900
C337        C  0.19302048  0.47794607  0.79512936     0.82100
N338        N  0.22593878  0.47800146  0.81927069    -0.76200
C339        C  0.25911673  0.47838769  0.79534710     0.84500
N340        N  0.25940885  0.47882317  0.74734313    -0.76200
C341        C  0.22647479  0.47877360  0.72309732     0.84600
N342        N  0.19330405  0.47834105  0.74716193    -0.77900
C343        C  0.76961994  0.26683298  0.79506718     0.82100
N344        N  0.73597457  0.23462460  0.81918605    -0.76200
C345        C  0.70222165  0.20245971  0.79513860     0.84500
N346        N  0.70216161  0.20256529  0.74715228    -0.76200
C347        C  0.73576101  0.23475713  0.72299763     0.84600
N348        N  0.76943505  0.26686940  0.74711180    -0.77900
C349        C  0.77017308  0.26674200  0.59917283     0.82100
N350        N  0.76973640  0.26683215  0.64713255    -0.76200
C351        C  0.73592924  0.23472704  0.67112012     0.84500
N352        N  0.70247779  0.20250343  0.64683716    -0.76200
C353        C  0.70282167  0.20235826  0.59885750     0.84600
N354        N  0.73667187  0.23450967  0.57494458    -0.77900
C355        C  0.70609103  0.50439569  0.59908795     0.82100
N356        N  0.73819201  0.50268095  0.57507210    -0.73200
C357        C  0.77022994  0.50092600  0.59919400     0.84500
N358        N  0.77009361  0.50083774  0.64717326    -0.76200
C359        C  0.73801340  0.50251672  0.67125381     0.84600
N360        N  0.70602675  0.50427554  0.64706098    -0.77900
C361        C  0.70598394  0.50450608  0.79519224     0.82100
N362        N  0.70590126  0.50420408  0.74722298    -0.76200
C363        C  0.73805113  0.50268332  0.72313359     0.84500
N364        N  0.77030178  0.50142257  0.74731334    -0.76200
C365        C  0.77046483  0.50169217  0.79528022     0.84600
N366        N  0.73825956  0.50319469  0.81932596    -0.77900
C367        C  0.46861223  0.20246419  0.79529809     0.82100
N368        N  0.46913994  0.20295604  0.74734554    -0.76200
C369        C  0.47086776  0.23680566  0.72343216     0.84500
N370        N  0.47212257  0.27023360  0.74777024    -0.76200
C371        C  0.47167025  0.26985986  0.79574102     0.84600
N372        N  0.46992897  0.23595661  0.81960057    -0.77900
C373        C  0.46922181  0.20321838  0.59946338     0.82100
N374        N  0.46951192  0.20339989  0.64741540    -0.76200
C375        C  0.47100253  0.23701669  0.67157606     0.84500
N376        N  0.47224033  0.27057006  0.64748588    -0.76200
C377        C  0.47199766  0.27052204  0.59950077     0.84600
N378        N  0.47050245  0.23682900  0.57540269    -0.77900
O379        O  0.52072812  0.60473007  0.53985321    -0.73400
O380        O  0.46168761  0.59533161  0.99819836    -0.52300
C381        C  0.49198731  0.61497135  0.52877329     0.80300
O382        O  0.59413740  0.53162739  0.85269291    -0.58000
O383        O  0.58652391  0.47375153  0.89535241    -0.51000
C384        C  0.60523353  0.50355001  0.86407602     0.72300
O385        O  0.52087705  0.60478748  0.85430447    -0.72600
O386        O  0.46188763  0.59544753  0.89600604    -0.53100
C387        C  0.49217444  0.61507491  0.86541337     0.78300
O388        O  0.59442542  0.53181347  0.54131452    -0.57700
O389        O  0.58661187  0.47373777  0.99892242    -0.50800
C390        C  0.60549759  0.50370210  0.52999561     0.74900
Zr391      Zr  0.53894779  0.54945415  0.51780425     2.54700
O392        O  0.60688556  0.61802701  0.51671722    -0.78300
O393        O  0.53742441  0.54820759  0.60396410    -0.91700
Zr394      Zr  0.53920839  0.54974225  0.87700352     2.64700
O395        O  0.60666243  0.61862433  0.88214882    -0.96700
O396        O  0.53940791  0.55073083  0.79088097    -0.78700
O397        O  0.51849123  0.57091348  0.94736440    -0.82100
O398        O  0.56115737  0.52992800  0.94738115    -2.16800
O399        O  0.44758902  0.38338791  0.54180114    -0.65500
O400        O  0.50540678  0.39152846  0.99866285    -0.50000
C401        C  0.47587530  0.37265280  0.53020343     0.73300
O402        O  0.37133415  0.45327396  0.85459676    -0.58400
O403        O  0.37952245  0.51193957  0.89609325    -0.50300
C404        C  0.36029131  0.48144989  0.86563733     0.75100
O405        O  0.44750612  0.38294160  0.85276314    -0.69800
O406        O  0.50564395  0.39159381  0.89566858    -0.48400
C407        C  0.47592081  0.37237821  0.86439859     0.76500
O408        O  0.37185756  0.45424045  0.54006527    -0.65100
O409        O  0.37990376  0.51272289  0.99831472    -0.52300
C410        C  0.36083456  0.48242871  0.52900291     0.74900
Zr411      Zr  0.42789795  0.43718209  0.51753379     2.77500
O412        O  0.36007964  0.36848451  0.51526889    -0.95800
O413        O  0.42844821  0.43874024  0.60364934    -0.76700
Zr414      Zr  0.42813124  0.43712540  0.87651233     2.70100
O415        O  0.36149306  0.36738361  0.87905515    -0.77900
O416        O  0.42848529  0.43939917  0.79035822    -0.97000
Zr417      Zr  0.44149555  0.53377959  0.94706829     2.21500
Zr418      Zr  0.52535697  0.45283577  0.94717580     2.11100
O419        O  0.44830345  0.41583296  0.94710102    -2.45700
O420        O  0.40587540  0.45680205  0.94693082    -0.77700
O421        O  0.50471393  0.47272350  0.51881149    -0.69900
O422        O  0.46240157  0.51384855  0.87551915    -2.30900
O423        O  0.46216555  0.51382618  0.51877612    -2.27100
O424        O  0.50496271  0.47294901  0.87552587    -0.71700
H425        H  0.59220027  0.54241167  0.94744393     0.80300
H426        H  0.45285229  0.52307227  0.84815024     0.81400
H427        H  0.43637990  0.38484171  0.94708262     0.83600
H428        H  0.45251580  0.52304255  0.54605520     0.81300
H429        H  0.52496714  0.51981536  0.78168190     0.44300
H430        H  0.45545931  0.43982043  0.78101821     0.43300
H431        H  0.34576406  0.36929508  0.90697973     0.42900
H432        H  0.36606550  0.34954267  0.99481265     0.40900
H433        H  0.45917087  0.45008820  0.61232099     0.44000
H434        H  0.50829993  0.54310983  0.61245448     0.38800
H435        H  0.60629627  0.63173355  0.98646764     0.44900
H436        H  0.62695884  0.61197179  0.89906977     0.41300
H437        H  0.35707479  0.35634602  0.54746974     0.46200
H438        H  0.55743321  0.57858728  0.61340365     0.45000
H439        H  0.61767622  0.62486318  0.84926128     0.45100
H440        H  0.40495483  0.41036785  0.78075524     0.45500
O441        O  0.05376811  0.60112258  0.85382307    -0.73400
O442        O  0.10431972  0.59329451  0.89563887    -0.52300
C443        C  0.09300029  0.61237185  0.86500787     0.80300
O444        O  0.90747301  0.52550320  0.54118401    -0.58000
O445        O  0.85775685  0.46735425  0.99845978    -0.51000
C446        C  0.86843356  0.49704556  0.52980744     0.72300
O447        O  0.05384019  0.60143953  0.53931214    -0.72600
O448        O  0.10431893  0.59304238  0.99806633    -0.53100
C449        C  0.09305232  0.61235673  0.52844028     0.78300
O450        O  0.90752103  0.52519196  0.85221233    -0.57700
O451        O  0.85782222  0.46713632  0.89507523    -0.50800
C452        C  0.86850323  0.49686763  0.86376760     0.74900
Zr453      Zr  0.98090681  0.54439983  0.87605712     2.54700
O454        O  0.97890381  0.61158848  0.87858192    -0.78300
O455        O  0.98076847  0.54299495  0.78989114    -0.91700
Zr456      Zr  0.98094465  0.54502964  0.51693618     2.64700
O457        O  0.98052744  0.61304939  0.51319641    -0.96700
O458        O  0.98171112  0.54495002  0.60309564    -0.78700
O459        O  0.02275949  0.56670265  0.94646381    -0.82100
O460        O  0.93921565  0.52439556  0.94651689    -2.16800
O461        O  0.90883731  0.37861299  0.85237924    -0.65500
O462        O  0.85862680  0.38590896  0.89549732    -0.50000
C463        C  0.86967042  0.36736374  0.86398139     0.73300
O464        O  0.05534993  0.45173561  0.54013234    -0.58400
O465        O  0.10509651  0.51051116  0.99816577    -0.50300
C466        C  0.09437151  0.48033538  0.52896031     0.75100
O467        O  0.90912100  0.37864709  0.54155661    -0.69800
O468        O  0.85879483  0.38623934  0.99901073    -0.48400
C469        C  0.86993038  0.36750836  0.53023435     0.76500
O470        O  0.05539247  0.45138139  0.85433104    -0.65100
O471        O  0.10527697  0.51095011  0.89513648    -0.52300
C472        C  0.09443881  0.48032391  0.86493707     0.74900
Zr473      Zr  0.98202962  0.43334143  0.87672463     2.77500
O474        O  0.98257450  0.36534529  0.87946330    -0.95800
O475        O  0.98273837  0.43431617  0.79059989    -0.76700
Zr476      Zr  0.98210927  0.43401835  0.51762820     2.70100
O477        O  0.98162518  0.36554706  0.51613744    -0.77900
O478        O  0.98367757  0.43741128  0.60370375    -0.97000
Zr479      Zr  0.06420717  0.53122583  0.94670095     2.21500
Zr480      Zr  0.89904408  0.44732918  0.94696274     2.11100
O481        O  0.94038562  0.41160358  0.94721587    -2.45700
O482        O  0.02396976  0.45418790  0.94714978    -0.77700
O483        O  0.93958743  0.46761443  0.87535147    -0.69900
O484        O  0.02338036  0.51077177  0.51824249    -2.30900
O485        O  0.02334370  0.51013385  0.87510728    -2.27100
O486        O  0.93958799  0.46821753  0.51856501    -0.71700
H487        H  0.92020542  0.53635411  0.94635890     0.80300
H488        H  0.04220480  0.52039772  0.54557199     0.81400
H489        H  0.92183253  0.38054557  0.94738920     0.83600
H490        H  0.04212445  0.51959094  0.84774208     0.81300
H491        H  0.98997861  0.52312820  0.61165674     0.44300
H492        H  0.95651863  0.43679470  0.61262622     0.43300
H493        H  0.99834902  0.36728388  0.98744045     0.42900
H494        H  0.95657394  0.34548734  0.89804605     0.40900
H495        H  0.96929925  0.45186317  0.78196223     0.44000
H496        H  0.00702212  0.54176699  0.78114434     0.38800
H497        H  0.99602462  0.62681256  0.90698618     0.44900
H498        H  0.95546504  0.60687137  0.99287052     0.41300
H499        H  0.97566915  0.35405384  0.84670881     0.46200
H500        H  0.98731047  0.57239763  0.78041559     0.45000
H501        H  0.97175952  0.61673147  0.54532029     0.45100
H502        H  0.97927984  0.40891099  0.61387933     0.45500
O503        O  0.51851090  0.91852915  0.85445723    -0.73400
O504        O  0.46021704  0.86795261  0.89628779    -0.52300
C505        C  0.49049778  0.87928874  0.86555771     0.80300
O506        O  0.58989049  0.06536303  0.54133164    -0.58000
O507        O  0.58152291  0.11495769  0.99828694    -0.51000
C508        C  0.60059941  0.10435260  0.52963701     0.72300
O509        O  0.51917240  0.91910673  0.54047786    -0.72600
O510        O  0.46107030  0.86857207  0.99832919    -0.53100
C511        C  0.49125862  0.87989116  0.52918864     0.78300
O512        O  0.58926264  0.06528278  0.85274693    -0.57700
O513        O  0.58069098  0.11495649  0.89538823    -0.50800
C514        C  0.59978407  0.10431156  0.86412148     0.74900
Zr515      Zr  0.53533961  0.99165959  0.87656621     2.54700
O516        O  0.60413824  0.99281261  0.87858609    -0.78300
O517        O  0.53452804  0.99129849  0.79038262    -0.91700
Zr518      Zr  0.53583468  0.99189871  0.51746789     2.64700
O519        O  0.60450443  0.99274949  0.51434304    -0.96700
O520        O  0.53446672  0.99064969  0.60357697    -0.78700
O521        O  0.51597651  0.94994955  0.94709361    -0.82100
O522        O  0.55694365  0.03346274  0.94694273    -2.16800
O523        O  0.44088003  0.06324769  0.85288646    -0.65500
O524        O  0.49848694  0.11358412  0.89581355    -0.50000
C525        C  0.46879534  0.10242671  0.86438984     0.73300
O526        O  0.36801697  0.91726898  0.53997634    -0.58400
O527        O  0.37799234  0.86754470  0.99923700    -0.50300
C528        C  0.35807407  0.87827732  0.52936418     0.75100
O529        O  0.44121854  0.06371493  0.54186232    -0.69800
O530        O  0.49940106  0.11389379  0.99954668    -0.48400
C531        C  0.46948891  0.10290058  0.53066638     0.76500
O532        O  0.36776676  0.91678437  0.85479383    -0.65100
O533        O  0.37765680  0.86714420  0.89584697    -0.52300
C534        C  0.35780947  0.87779840  0.86550544     0.74900
Zr535      Zr  0.42296121  0.99024349  0.87705381     2.77500
O536        O  0.35413740  0.98912934  0.87987074    -0.95800
O537        O  0.42434026  0.98994018  0.79092445    -0.76700
Zr538      Zr  0.42348737  0.99059060  0.51786751     2.70100
O539        O  0.35530897  0.99069954  0.51557807    -0.77900
O540        O  0.42422919  0.98802382  0.60391873    -0.97000
Zr541      Zr  0.43902654  0.90853508  0.94732565     2.21500
Zr542      Zr  0.51986527  0.07348501  0.94730287     2.11100
O543        O  0.44281441  0.03211652  0.94738382    -2.45700
O544        O  0.40194570  0.94847516  0.94755484    -0.77700
O545        O  0.49967281  0.03279909  0.87578060    -0.69900
O546        O  0.45919194  0.94952612  0.51873110    -2.30900
O547        O  0.45866180  0.94916980  0.87563311    -2.27100
O548        O  0.50022436  0.03313673  0.51901690    -0.71700
H549        H  0.58792381  0.05250712  0.94677060     0.80300
H550        H  0.45005755  0.93081358  0.54613662     0.81400
H551        H  0.43025537  0.05063760  0.94747959     0.83600
H552        H  0.44933194  0.93032566  0.84833910     0.81300
H553        H  0.51575642  0.00276240  0.61224191     0.44300
H554        H  0.45096807  0.01478796  0.61329772     0.43300
H555        H  0.34080525  0.97438999  0.98649377     0.42900
H556        H  0.36085008  0.01684194  0.89500920     0.40900
H557        H  0.45518015  0.00131012  0.78281368     0.44000
H558        H  0.50579010  0.96672711  0.78168296     0.38800
H559        H  0.60324315  0.97784946  0.90844099     0.44900
H560        H  0.62438466  0.01963012  0.99705812     0.41300
H561        H  0.34785361  0.99235289  0.84646288     0.46200
H562        H  0.55524495  0.98171339  0.78130821     0.45000
H563        H  0.61520235  0.99839390  0.54737115     0.45100
H564        H  0.40040157  0.99293632  0.61386603     0.45500
C565        C  0.47425266  0.33645643  0.55430812    -0.11400
C566        C  0.47317812  0.30613073  0.57447182    -0.13000
C567        C  0.46787415  0.16748489  0.57451876    -0.11400
C568        C  0.46770147  0.13743266  0.55472184    -0.13000
C569        C  0.47417087  0.33592065  0.84079247    -0.11400
C570        C  0.47296997  0.30541644  0.82094243    -0.13000
C571        C  0.46709327  0.16663636  0.82006744    -0.11400
C572        C  0.46691840  0.13674018  0.84013673    -0.13000
C573        C  0.64155408  0.50548880  0.84001407    -0.11400
C574        C  0.67150038  0.50560079  0.82011413    -0.13000
C575        C  0.80474173  0.50023713  0.82027393    -0.11400
C576        C  0.83395547  0.49881850  0.84006420    -0.13000
C577        C  0.64193280  0.50574737  0.55397952    -0.11400
C578        C  0.67180307  0.50577894  0.57400959    -0.13000
C579        C  0.83384608  0.49859395  0.55397590    -0.11400
C580        C  0.80457388  0.49958682  0.57418244    -0.13000
C581        C  0.66730644  0.16809564  0.57363394    -0.11400
C582        C  0.63695544  0.13893024  0.55345955    -0.13000
C583        C  0.83561909  0.33113269  0.55433252    -0.11400
C584        C  0.80584417  0.30119197  0.57431965    -0.13000
C585        C  0.63607649  0.13892287  0.84019261    -0.11400
C586        C  0.66653074  0.16816847  0.82019575    -0.13000
C587        C  0.80530838  0.30122217  0.81997797    -0.11400
C588        C  0.83523924  0.33109225  0.83987186    -0.13000
C589        C  0.32382196  0.47911849  0.84149847    -0.11400
C590        C  0.29397501  0.47844882  0.82073262    -0.13000
C591        C  0.15806688  0.47787557  0.82020855    -0.11400
C592        C  0.12880875  0.47851253  0.84076605    -0.13000
C593        C  0.29441317  0.47926022  0.57376579    -0.11400
C594        C  0.32444483  0.48016799  0.55319878    -0.13000
C595        C  0.15826938  0.47837621  0.57389067    -0.11400
C596        C  0.12888654  0.47875425  0.55322219    -0.13000
C597        C  0.12712756  0.64885513  0.55262472    -0.11400
C598        C  0.15615190  0.67886660  0.57336627    -0.13000
C599        C  0.29174063  0.81457805  0.57365658    -0.11400
C600        C  0.32181224  0.84382248  0.55330589    -0.13000
C601        C  0.12703687  0.64895917  0.84089705    -0.11400
C602        C  0.15611251  0.67896021  0.82020878    -0.13000
C603        C  0.29198753  0.81427279  0.82025488    -0.11400
C604        C  0.32178953  0.84332782  0.84118396    -0.13000
C605        C  0.49382201  0.65122555  0.84130439    -0.11400
C606        C  0.49451164  0.68107801  0.82055934    -0.13000
C607        C  0.49413177  0.81645625  0.82038348    -0.11400
C608        C  0.49295676  0.84531636  0.84123759    -0.13000
C609        C  0.49362453  0.65109968  0.55288536    -0.11400
C610        C  0.49429499  0.68094167  0.57361233    -0.13000
C611        C  0.49367650  0.84583557  0.55333781    -0.11400
C612        C  0.49455404  0.81667633  0.57385485    -0.13000
loop_ 
_geom_bond_atom_site_label_1 
_geom_bond_atom_site_label_2 
_geom_bond_distance 
_geom_bond_site_symmetry_2 
_ccdc_geom_bond_type 
C1            N2   1.356       .  A
C1            N6   1.357       .  A
C1          C304   1.433       .  S
N2            C3   1.358       .  A
C3            N4   1.358       .  A
C3            C9   1.468       .  S
N4            C5   1.356       .  A
C5            N6   1.357       .  A
C5          C306   1.433       .  S
C7            N8   1.356       .  A
C7           N12   1.356       .  A
C7          C300   1.433       .  S
N8            C9   1.358       .  A
C9           N10   1.358       .  A
N10          C11   1.356       .  A
C11          N12   1.356       .  A
C11         C301   1.434       .  S
C13          N14   1.357       .  A
C13          N18   1.356       .  A
C13         C297   1.434       .  S
N14          C15   1.359       .  A
C15          N16   1.358       .  A
C15          C21   1.468       .  S
N16          C17   1.356       .  A
C17          N18   1.357       .  A
C17         C296   1.434       .  S
C19          N20   1.356       .  A
C19          N24   1.357       .  A
C19         C293   1.432       .  S
N20          C21   1.358       .  A
C21          N22   1.359       .  A
N22          C23   1.357       .  A
C23          N24   1.357       .  A
C23         C292   1.434       .  S
C25          N26   1.357       .  A
C25          N30   1.356       .  A
C25         C289   1.435       .  S
N26          C27   1.357       .  A
C27          N28   1.356       .  A
C27         C287   1.433       .  S
N28          C29   1.358       .  A
C29          N30   1.358       .  A
C29          C35   1.467       .  S
C31          N32   1.357       .  A
C31          N36   1.356       .  A
C31         C285   1.433       .  S
N32          C33   1.357       .  A
C33          N34   1.357       .  A
C33         C284   1.434       .  S
N34          C35   1.359       .  A
C35          N36   1.358       .  A
C37          N38   1.358       .  A
C37          N42   1.355       .  A
C37         C281   1.435       .  S
N38          C39   1.358       .  A
C39          N40   1.356       .  A
C39         C280   1.435       .  S
N40          C41   1.358       .  A
C41          N42   1.357       .  A
C41          C45   1.466       .  S
C43          N44   1.355       .  A
C43          N48   1.358       .  A
C43         C278   1.434       .  S
N44          C45   1.358       .  A
C45          N46   1.358       .  A
N46          C47   1.356       .  A
C47          N48   1.358       .  A
C47         C275   1.434       .  S
C49          N50   1.358       .  A
C49          N54   1.356       .  A
C49         C272   1.435       .  S
N50          C51   1.358       .  A
C51          N52   1.356       .  A
C51         C274   1.435       .  S
N52          C53   1.358       .  A
C53          N54   1.358       .  A
C53          C57   1.466       .  S
C55          N56   1.356       .  A
C55          N60   1.358       .  A
C55         C268   1.434       .  S
N56          C57   1.357       .  A
C57          N58   1.357       .  A
N58          C59   1.356       .  A
C59          N60   1.358       .  A
C59         C269   1.435       .  S
C61          N62   1.355       .  A
C61          N66   1.358       .  A
C61         C265   1.434       .  S
N62          C63   1.357       .  A
C63          N64   1.357       .  A
C63          C69   1.465       .  S
N64          C65   1.356       .  A
C65          N66   1.358       .  A
C65         C264   1.435       .  S
C67          N68   1.355       .  A
C67          N72   1.358       .  A
C67         C261   1.436       .  S
N68          C69   1.357       .  A
C69          N70   1.358       .  A
N70          C71   1.356       .  A
C71          N72   1.359       .  A
C71         C260   1.435       .  S
O73         Zr85   2.444       .  S
O73          C75   1.287       .  A
O74        Zr111   2.417       .  S
O74         C381   1.284       .  A
C75         C303   1.432       .  S
C75         O380   1.284   1_554  A
O76         Zr88   2.447       .  S
O76          C78   1.288       .  A
O77        Zr112   2.415       .  S
O77          C78   1.283       .  A
C78         C267   1.433       .  S
O79         Zr88   2.444       .  S
O79          C81   1.287       .  A
O80        Zr111   2.418       .  S
O80          C81   1.284       .  A
C81         C299   1.433       .  S
O82         Zr85   2.448       .  S
O82          C84   1.288       .  A
O83        Zr112   2.416       .  S
O83         C390   1.283       .  A
C84         C271   1.434       .  S
C84         O389   1.283   1_554  A
Zr85         O86   2.434       .  S
Zr85         O87   2.435       .  S
Zr85        O115   2.374       .  S
Zr85        O117   2.373       .  S
Zr85        O397   2.374   1_554  S
Zr85        O398   2.372   1_554  S
O86         H435   0.990   1_554  S
O87         H128   0.990       .  S
O87         H132   0.990       .  S
Zr88         O89   2.435       .  S
Zr88         O90   2.434       .  S
Zr88         O92   2.370       .  S
Zr88         O91   2.372       .  S
Zr88        O116   2.374       .  S
Zr88        O118   2.376       .  S
O89         H130   0.990       .  S
O89         H133   0.990       .  S
O90         H123   0.990       .  S
O91        Zr111   2.378       .  S
O91        Zr391   2.374       .  S
O92        Zr112   2.382       .  S
O92        Zr391   2.372       .  S
O92         H119   0.965       .  S
O93        Zr105   2.447       .  S
O93          C95   1.287       .  A
O94        Zr112   2.418       .  S
O94         C401   1.284       .  A
C95         C259   1.435       .  S
C95         O400   1.284   1_554  A
O96        Zr108   2.446       .  S
O96          C98   1.287       .  A
O97        Zr111   2.417       .  S
O97          C98   1.284       .  A
C98         C283   1.433       .  S
O99        Zr108   2.448       .  S
O99         C101   1.287       .  A
O100       Zr112   2.418       .  S
O100        C101   1.283       .  A
C101        C263   1.434       .  S
O102       Zr105   2.446       .  S
O102        C104   1.287       .  A
O103       Zr111   2.416       .  S
O103        C410   1.283       .  A
C104        C288   1.433       .  S
C104        O409   1.283   1_554  A
Zr105       O106   2.435       .  S
Zr105       O107   2.434       .  S
Zr105       O117   2.371       .  S
Zr105       O115   2.374       .  S
Zr105       O419   2.372   1_554  S
Zr105       O420   2.374   1_554  S
O106        H131   0.990       .  S
O106        H432   0.990   1_554  S
O107        H127   0.990       .  S
Zr108       O109   2.434       .  S
Zr108       O110   2.436       .  S
Zr108       O114   2.375       .  S
Zr108       O113   2.370       .  S
Zr108       O118   2.374       .  S
Zr108       O116   2.374       .  S
O109        H125   0.990       .  S
O110        H124   0.990       .  S
O110        H134   0.990       .  S
Zr111       O114   2.379       .  S
Zr111       O116   2.383       .  S
Zr111       O423   2.383       .  S
Zr112       O113   2.380       .  S
Zr112       O118   2.380       .  S
Zr112       O421   2.380       .  S
O113       Zr411   2.372       .  S
O113        H121   0.965       .  S
O114       Zr411   2.374       .  S
O115       Zr418   2.380   1_554  S
O116        H120   0.966       .  S
O117       Zr417   2.383   1_554  S
O117        H122   0.966       .  S
H126        O412   0.990       .  S
H129        O392   0.990       .  S
O135       Zr147   2.445   1_455  S
O135        C137   1.287       .  A
O136       Zr173   2.421       .  S
O136        C137   1.284       .  A
C137        C295   1.434       .  S
O138       Zr150   2.448       .  S
O138        C140   1.288       .  A
O139       Zr174   2.418       .  S
O139        C446   1.284       .  A
C140        C273   1.435       .  S
C140        O445   1.284   1_554  A
O141       Zr150   2.444   1_455  S
O141        C143   1.287       .  A
O142       Zr173   2.420       .  S
O142        C449   1.284       .  A
C143        C291   1.434       .  S
C143        O448   1.284   1_554  A
O144       Zr147   2.445       .  S
O144        C146   1.287       .  A
O145       Zr174   2.418       .  S
O145        C146   1.284       .  A
C146        C270   1.434       .  S
Zr147       O148   2.433       .  S
Zr147       O149   2.436       .  S
Zr147       O153   2.373   1_655  S
Zr147       O154   2.371       .  S
Zr147       O177   2.373       .  S
Zr147       O179   2.373   1_655  S
O148        H191   0.990       .  S
O149        H190   0.990   1_655  S
O149        H194   0.990       .  S
Zr150       O151   2.435       .  S
Zr150       O152   2.435       .  S
Zr150       O178   2.373   1_655  S
Zr150       O180   2.375       .  S
Zr150       O460   2.371   1_554  S
Zr150       O459   2.374   1_654  S
O151        H195   0.990       .  S
O151        H498   0.990   1_554  S
O152        H185   0.990       .  S
O153       Zr173   2.378       .  S
O153       Zr456   2.374   1_455  S
O154       Zr174   2.380       .  S
O154       Zr456   2.371       .  S
O154        H181   0.964       .  S
O155       Zr167   2.449       .  S
O155        C157   1.288       .  A
O156       Zr174   2.415       .  S
O156        C157   1.283       .  A
C157        C282   1.434       .  S
O158       Zr170   2.444   1_455  S
O158        C160   1.287       .  A
O159       Zr173   2.421       .  S
O159        C466   1.284       .  A
C160        C290   1.434       .  S
C160        O465   1.284   1_554  A
O161       Zr170   2.447       .  S
O161        C163   1.287       .  A
O162       Zr174   2.417       .  S
O162        C469   1.283       .  A
C163        C277   1.434       .  S
C163        O468   1.283   1_554  A
O164       Zr167   2.444   1_455  S
O164        C166   1.287       .  A
O165       Zr173   2.419       .  S
O165        C166   1.284       .  A
C166        C286   1.432       .  S
Zr167       O168   2.435       .  S
Zr167       O169   2.434       .  S
Zr167       O175   2.371       .  S
Zr167       O176   2.374   1_655  S
Zr167       O179   2.374   1_655  S
Zr167       O177   2.373       .  S
O168        H188   0.990       .  S
O168        H193   0.990       .  S
O169        H189   0.990       .  S
Zr170       O171   2.433       .  S
Zr170       O172   2.435       .  S
Zr170       O180   2.374       .  S
Zr170       O178   2.372   1_655  S
Zr170       O482   2.375   1_654  S
Zr170       O481   2.371   1_554  S
O171        H493   0.990   1_554  S
O172        H186   0.990       .  S
O172        H196   0.990       .  S
Zr173       O176   2.380       .  S
Zr173       O179   2.384       .  S
Zr173       O484   2.383       .  S
Zr174       O175   2.382       .  S
Zr174       O177   2.380       .  S
Zr174       O486   2.379       .  S
O175       Zr476   2.371       .  S
O175        H183   0.965       .  S
O176       Zr476   2.375   1_455  S
O178       Zr479   2.383   1_554  S
O178        H182   0.967       .  S
O179        H184   0.967       .  S
O180       Zr480   2.379   1_554  S
H187        O477   0.990       .  S
H192        O457   0.990       .  S
O197       Zr209   2.446       .  S
O197        C199   1.287       .  A
O198       Zr235   2.416       .  S
O198        C199   1.283       .  A
C199        C302   1.433       .  S
O200       Zr212   2.446   1_545  S
O200        C202   1.287       .  A
O201       Zr236   2.417       .  S
O201        C508   1.283       .  A
C202        C276   1.434       .  S
C202        O507   1.283   1_554  A
O203       Zr212   2.443       .  S
O203        C205   1.287       .  A
O204       Zr235   2.417       .  S
O204        C511   1.283       .  A
C205        C305   1.432       .  S
C205        O510   1.283   1_554  A
O206       Zr209   2.448   1_545  S
O206        C208   1.288       .  A
O207       Zr236   2.416       .  S
O207        C208   1.283       .  A
C208        C279   1.434       .  S
Zr209       O210   2.433       .  S
Zr209       O211   2.436       .  S
Zr209       O215   2.373       .  S
Zr209       O216   2.371   1_565  S
Zr209       O239   2.374   1_565  S
Zr209       O241   2.372       .  S
O210        H253   0.990       .  S
O211        H252   0.990       .  S
O211        H256   0.990       .  S
Zr212       O213   2.435       .  S
Zr212       O214   2.434       .  S
Zr212       O240   2.371       .  S
Zr212       O242   2.375   1_565  S
Zr212       O522   2.370   1_564  S
Zr212       O521   2.374   1_554  S
O213        H257   0.990       .  S
O213        H560   0.990   1_564  S
O214        H247   0.990   1_565  S
O215       Zr235   2.378       .  S
O215       Zr518   2.374       .  S
O216       Zr236   2.381       .  S
O216       Zr518   2.370   1_545  S
O216        H243   0.965       .  S
O217       Zr229   2.447   1_545  S
O217        C219   1.287       .  A
O218       Zr236   2.415       .  S
O218        C219   1.283       .  A
C219        C266   1.433       .  S
O220       Zr232   2.442       .  S
O220        C222   1.287       .  A
O221       Zr235   2.417       .  S
O221        C528   1.284       .  A
C222        C294   1.432       .  S
C222        O527   1.284   1_554  A
O223       Zr232   2.451   1_545  S
O223        C225   1.288       .  A
O224       Zr236   2.417       .  S
O224        C531   1.283       .  A
C225        C262   1.436       .  S
C225        O530   1.283   1_554  A
O226       Zr229   2.444       .  S
O226        C228   1.287       .  A
O227       Zr235   2.419       .  S
O227        C228   1.284       .  A
C228        C298   1.433       .  S
Zr229       O230   2.435       .  S
Zr229       O231   2.435       .  S
Zr229       O237   2.372   1_565  S
Zr229       O238   2.373       .  S
Zr229       O241   2.373       .  S
Zr229       O239   2.374   1_565  S
O230        H250   0.990   1_565  S
O230        H255   0.990       .  S
O231        H251   0.990   1_565  S
Zr232       O233   2.434       .  S
Zr232       O234   2.434       .  S
Zr232       O242   2.374   1_565  S
Zr232       O240   2.372       .  S
Zr232       O544   2.375   1_554  S
Zr232       O543   2.369   1_564  S
O233        H555   0.990   1_554  S
O234        H248   0.990   1_565  S
O234        H258   0.990       .  S
Zr235       O238   2.379       .  S
Zr235       O241   2.383       .  S
Zr235       O546   2.382       .  S
Zr236       O237   2.381       .  S
Zr236       O239   2.380       .  S
Zr236       O548   2.379       .  S
O237       Zr538   2.369   1_545  S
O237        H245   0.966       .  S
O238       Zr538   2.375       .  S
O240       Zr541   2.382   1_554  S
O240        H244   0.966       .  S
O241        H246   0.966       .  S
O242       Zr542   2.379   1_554  S
H249        O539   0.990       .  S
H254        O519   0.990   1_545  S
C259        C260   1.206       .  T
C261        C262   1.206       .  T
C263        C264   1.205       .  T
C265        C266   1.205       .  T
C267        C268   1.205       .  T
C269        C270   1.205       .  T
C271        C272   1.205       .  T
C273        C274   1.206       .  T
C275        C276   1.205       .  T
C277        C278   1.205       .  T
C279        C280   1.206       .  T
C281        C282   1.205       .  T
C283        C284   1.205       .  T
C285        C286   1.204       .  T
C287        C288   1.205       .  T
C289        C290   1.205       .  T
C291        C292   1.205       .  T
C293        C294   1.204       .  T
C295        C296   1.205       .  T
C297        C298   1.205       .  T
C299        C300   1.204       .  T
C301        C302   1.205       .  T
C303        C304   1.204       .  T
C305        C306   1.204       .  T
C307        N308   1.356       .  A
C307        N312   1.357       .  A
C307        C610   1.433       .  S
N308        C309   1.358       .  A
C309        N310   1.358       .  A
C309        C315   1.468       .  S
N310        C311   1.356       .  A
C311        N312   1.357       .  A
C311        C612   1.433       .  S
C313        N314   1.356       .  A
C313        N318   1.356       .  A
C313        C606   1.433       .  S
N314        C315   1.358       .  A
C315        N316   1.358       .  A
N316        C317   1.356       .  A
C317        N318   1.356       .  A
C317        C607   1.434       .  S
C319        N320   1.357       .  A
C319        N324   1.356       .  A
C319        C603   1.434       .  S
N320        C321   1.359       .  A
C321        N322   1.358       .  A
C321        C327   1.468       .  S
N322        C323   1.356       .  A
C323        N324   1.357       .  A
C323        C602   1.434       .  S
C325        N326   1.356       .  A
C325        N330   1.357       .  A
C325        C599   1.432       .  S
N326        C327   1.358       .  A
C327        N328   1.359       .  A
N328        C329   1.357       .  A
C329        N330   1.357       .  A
C329        C598   1.434       .  S
C331        N332   1.357       .  A
C331        N336   1.356       .  A
C331        C595   1.435       .  S
N332        C333   1.357       .  A
C333        N334   1.356       .  A
C333        C593   1.433       .  S
N334        C335   1.358       .  A
C335        N336   1.358       .  A
C335        C341   1.467       .  S
C337        N338   1.357       .  A
C337        N342   1.356       .  A
C337        C591   1.433       .  S
N338        C339   1.357       .  A
C339        N340   1.357       .  A
C339        C590   1.434       .  S
N340        C341   1.359       .  A
C341        N342   1.358       .  A
C343        N344   1.358       .  A
C343        N348   1.355       .  A
C343        C587   1.435       .  S
N344        C345   1.358       .  A
C345        N346   1.356       .  A
C345        C586   1.435       .  S
N346        C347   1.358       .  A
C347        N348   1.357       .  A
C347        C351   1.466       .  S
C349        N350   1.355       .  A
C349        N354   1.358       .  A
C349        C584   1.434       .  S
N350        C351   1.358       .  A
C351        N352   1.358       .  A
N352        C353   1.356       .  A
C353        N354   1.358       .  A
C353        C581   1.434       .  S
C355        N356   1.358       .  A
C355        N360   1.356       .  A
C355        C578   1.435       .  S
N356        C357   1.358       .  A
C357        N358   1.356       .  A
C357        C580   1.435       .  S
N358        C359   1.358       .  A
C359        N360   1.358       .  A
C359        C363   1.466       .  S
C361        N362   1.356       .  A
C361        N366   1.358       .  A
C361        C574   1.434       .  S
N362        C363   1.357       .  A
C363        N364   1.357       .  A
N364        C365   1.356       .  A
C365        N366   1.358       .  A
C365        C575   1.435       .  S
C367        N368   1.355       .  A
C367        N372   1.358       .  A
C367        C571   1.434       .  S
N368        C369   1.357       .  A
C369        N370   1.357       .  A
C369        C375   1.465       .  S
N370        C371   1.356       .  A
C371        N372   1.358       .  A
C371        C570   1.435       .  S
C373        N374   1.355       .  A
C373        N378   1.358       .  A
C373        C567   1.436       .  S
N374        C375   1.357       .  A
C375        N376   1.358       .  A
N376        C377   1.356       .  A
C377        N378   1.359       .  A
C377        C566   1.435       .  S
O379       Zr391   2.444       .  S
O379        C381   1.287       .  A
O380       Zr417   2.417       .  S
C381        C609   1.432       .  S
O382       Zr394   2.447       .  S
O382        C384   1.288       .  A
O383       Zr418   2.415       .  S
O383        C384   1.283       .  A
C384        C573   1.433       .  S
O385       Zr394   2.444       .  S
O385        C387   1.287       .  A
O386       Zr417   2.418       .  S
O386        C387   1.284       .  A
C387        C605   1.433       .  S
O388       Zr391   2.448       .  S
O388        C390   1.288       .  A
O389       Zr418   2.416       .  S
C390        C577   1.434       .  S
Zr391       O392   2.434       .  S
Zr391       O393   2.435       .  S
Zr391       O421   2.374       .  S
Zr391       O423   2.373       .  S
O393        H434   0.990       .  S
O393        H438   0.990       .  S
Zr394       O395   2.435       .  S
Zr394       O396   2.434       .  S
Zr394       O398   2.370       .  S
Zr394       O397   2.372       .  S
Zr394       O422   2.374       .  S
Zr394       O424   2.376       .  S
O395        H436   0.990       .  S
O395        H439   0.990       .  S
O396        H429   0.990       .  S
O397       Zr417   2.378       .  S
O398       Zr418   2.382       .  S
O398        H425   0.965       .  S
O399       Zr411   2.447       .  S
O399        C401   1.287       .  A
O400       Zr418   2.418       .  S
C401        C565   1.435       .  S
O402       Zr414   2.446       .  S
O402        C404   1.287       .  A
O403       Zr417   2.417       .  S
O403        C404   1.284       .  A
C404        C589   1.433       .  S
O405       Zr414   2.448       .  S
O405        C407   1.287       .  A
O406       Zr418   2.418       .  S
O406        C407   1.283       .  A
C407        C569   1.434       .  S
O408       Zr411   2.446       .  S
O408        C410   1.287       .  A
O409       Zr417   2.416       .  S
C410        C594   1.433       .  S
Zr411       O412   2.435       .  S
Zr411       O413   2.434       .  S
Zr411       O423   2.371       .  S
Zr411       O421   2.374       .  S
O412        H437   0.990       .  S
O413        H433   0.990       .  S
Zr414       O415   2.434       .  S
Zr414       O416   2.436       .  S
Zr414       O420   2.375       .  S
Zr414       O419   2.370       .  S
Zr414       O424   2.374       .  S
Zr414       O422   2.374       .  S
O415        H431   0.990       .  S
O416        H430   0.990       .  S
O416        H440   0.990       .  S
Zr417       O420   2.379       .  S
Zr417       O422   2.383       .  S
Zr418       O419   2.380       .  S
Zr418       O424   2.380       .  S
O419        H427   0.965       .  S
O422        H426   0.966       .  S
O423        H428   0.966       .  S
O441       Zr453   2.445   1_455  S
O441        C443   1.287       .  A
O442       Zr479   2.421       .  S
O442        C443   1.284       .  A
C443        C601   1.434       .  S
O444       Zr456   2.448       .  S
O444        C446   1.288       .  A
O445       Zr480   2.418       .  S
C446        C579   1.435       .  S
O447       Zr456   2.444   1_455  S
O447        C449   1.287       .  A
O448       Zr479   2.420       .  S
C449        C597   1.434       .  S
O450       Zr453   2.445       .  S
O450        C452   1.287       .  A
O451       Zr480   2.418       .  S
O451        C452   1.284       .  A
C452        C576   1.434       .  S
Zr453       O454   2.433       .  S
Zr453       O455   2.436       .  S
Zr453       O459   2.373   1_655  S
Zr453       O460   2.371       .  S
Zr453       O483   2.373       .  S
Zr453       O485   2.373   1_655  S
O454        H497   0.990       .  S
O455        H496   0.990   1_655  S
O455        H500   0.990       .  S
Zr456       O457   2.435       .  S
Zr456       O458   2.435       .  S
Zr456       O484   2.373   1_655  S
Zr456       O486   2.375       .  S
O457        H501   0.990       .  S
O458        H491   0.990       .  S
O459       Zr479   2.378       .  S
O460       Zr480   2.380       .  S
O460        H487   0.964       .  S
O461       Zr473   2.449       .  S
O461        C463   1.288       .  A
O462       Zr480   2.415       .  S
O462        C463   1.283       .  A
C463        C588   1.434       .  S
O464       Zr476   2.444   1_455  S
O464        C466   1.287       .  A
O465       Zr479   2.421       .  S
C466        C596   1.434       .  S
O467       Zr476   2.447       .  S
O467        C469   1.287       .  A
O468       Zr480   2.417       .  S
C469        C583   1.434       .  S
O470       Zr473   2.444   1_455  S
O470        C472   1.287       .  A
O471       Zr479   2.419       .  S
O471        C472   1.284       .  A
C472        C592   1.432       .  S
Zr473       O474   2.435       .  S
Zr473       O475   2.434       .  S
Zr473       O481   2.371       .  S
Zr473       O482   2.374   1_655  S
Zr473       O485   2.374   1_655  S
Zr473       O483   2.373       .  S
O474        H494   0.990       .  S
O474        H499   0.990       .  S
O475        H495   0.990       .  S
Zr476       O477   2.433       .  S
Zr476       O478   2.435       .  S
Zr476       O486   2.374       .  S
Zr476       O484   2.372   1_655  S
O478        H492   0.990       .  S
O478        H502   0.990       .  S
Zr479       O482   2.380       .  S
Zr479       O485   2.384       .  S
Zr480       O481   2.382       .  S
Zr480       O483   2.380       .  S
O481        H489   0.965       .  S
O484        H488   0.967       .  S
O485        H490   0.967       .  S
O503       Zr515   2.446       .  S
O503        C505   1.287       .  A
O504       Zr541   2.416       .  S
O504        C505   1.283       .  A
C505        C608   1.433       .  S
O506       Zr518   2.446   1_545  S
O506        C508   1.287       .  A
O507       Zr542   2.417       .  S
C508        C582   1.434       .  S
O509       Zr518   2.443       .  S
O509        C511   1.287       .  A
O510       Zr541   2.417       .  S
C511        C611   1.432       .  S
O512       Zr515   2.448   1_545  S
O512        C514   1.288       .  A
O513       Zr542   2.416       .  S
O513        C514   1.283       .  A
C514        C585   1.434       .  S
Zr515       O516   2.433       .  S
Zr515       O517   2.436       .  S
Zr515       O521   2.373       .  S
Zr515       O522   2.371   1_565  S
Zr515       O545   2.374   1_565  S
Zr515       O547   2.372       .  S
O516        H559   0.990       .  S
O517        H558   0.990       .  S
O517        H562   0.990       .  S
Zr518       O519   2.435       .  S
Zr518       O520   2.434       .  S
Zr518       O546   2.371       .  S
Zr518       O548   2.375   1_565  S
O519        H563   0.990       .  S
O520        H553   0.990   1_565  S
O521       Zr541   2.378       .  S
O522       Zr542   2.381       .  S
O522        H549   0.965       .  S
O523       Zr535   2.447   1_545  S
O523        C525   1.287       .  A
O524       Zr542   2.415       .  S
O524        C525   1.283       .  A
C525        C572   1.433       .  S
O526       Zr538   2.442       .  S
O526        C528   1.287       .  A
O527       Zr541   2.417       .  S
C528        C600   1.432       .  S
O529       Zr538   2.451   1_545  S
O529        C531   1.288       .  A
O530       Zr542   2.417       .  S
C531        C568   1.436       .  S
O532       Zr535   2.444       .  S
O532        C534   1.287       .  A
O533       Zr541   2.419       .  S
O533        C534   1.284       .  A
C534        C604   1.433       .  S
Zr535       O536   2.435       .  S
Zr535       O537   2.435       .  S
Zr535       O543   2.372   1_565  S
Zr535       O544   2.373       .  S
Zr535       O547   2.373       .  S
Zr535       O545   2.374   1_565  S
O536        H556   0.990   1_565  S
O536        H561   0.990       .  S
O537        H557   0.990   1_565  S
Zr538       O539   2.434       .  S
Zr538       O540   2.434       .  S
Zr538       O548   2.374   1_565  S
Zr538       O546   2.372       .  S
O540        H554   0.990   1_565  S
O540        H564   0.990       .  S
Zr541       O544   2.379       .  S
Zr541       O547   2.383       .  S
Zr542       O543   2.381       .  S
Zr542       O545   2.380       .  S
O543        H551   0.966       .  S
O546        H550   0.966       .  S
O547        H552   0.966       .  S
C565        C566   1.206       .  T
C567        C568   1.206       .  T
C569        C570   1.205       .  T
C571        C572   1.205       .  T
C573        C574   1.205       .  T
C575        C576   1.205       .  T
C577        C578   1.205       .  T
C579        C580   1.206       .  T
C581        C582   1.205       .  T
C583        C584   1.205       .  T
C585        C586   1.206       .  T
C587        C588   1.205       .  T
C589        C590   1.205       .  T
C591        C592   1.204       .  T
C593        C594   1.205       .  T
C595        C596   1.205       .  T
C597        C598   1.205       .  T
C599        C600   1.204       .  T
C601        C602   1.205       .  T
C603        C604   1.205       .  T
C605        C606   1.204       .  T
C607        C608   1.205       .  T
C609        C610   1.204       .  T
C611        C612   1.204       .  T
