geometry optimzed in LAMMPS
_audit_creation_date              2020-12-01 
_audit_creation_method            'lammps2cif' 
_symmetry_space_group_name_H-M    'P1' 
_symmetry_Int_Tables_number       1 
_symmetry_cell_setting            triclinic 
loop_ 
_symmetry_equiv_pos_as_xyz 
  x,y,z 
_cell_length_a                    37.7113017 
_cell_length_b                    40.11035410950427 
_cell_length_c                    37.720129306676135 
_cell_angle_alpha                 90.00333889272746 
_cell_angle_beta                  90.00749442026382 
_cell_angle_gamma                 89.98945356992076 
loop_ 
_atom_site_label 
_atom_site_type_symbol 
_atom_site_fract_x 
_atom_site_fract_y 
_atom_site_fract_z 
_atom_site_charge 
C1          C  0.41685101  0.42680672  0.07164593     0.44600
N2          N  0.45197699  0.46738157  0.06073948     0.03500
C3          C  0.45785035  0.06508414  0.40939613    -0.04400
H4          H  0.47483330  0.43710814  0.38698922     0.09000
C5          C  0.08727216  0.44273728  0.46113081    -0.04700
Co6        Co  0.43178571  0.50383493  0.49455950     0.74200
N7          N  0.46249054  0.46745678  0.43270219    -0.23900
Co8        Co  0.00192701  0.50383748  0.43514240     0.74100
C9          C  0.07644485  0.42692465  0.42812923     0.44700
N10         N  0.05743388  0.46741604  0.04453971     0.03100
N11         N  0.04121307  0.46739945  0.43909834     0.03200
N12         N  0.41227759  0.06403639  0.44847321    -0.44700
H13         H  0.38364564  0.43712110  0.02167097     0.09000
N14         N  0.43575032  0.46735864  0.45530750     0.03500
N15         N  0.04117220  0.04029211  0.43910607     0.03300
C16         C  0.07631316  0.08082200  0.42816003     0.44900
N17         N  0.03069136  0.46751645  0.06714346    -0.23400
C18         C  0.40601677  0.06509654  0.03859743    -0.04300
N19         N  0.44511916  0.44365312  0.08420425    -0.44500
N20         N  0.04804789  0.06398066  0.41560984    -0.44700
C21         C  0.41686696  0.08093910  0.07157826     0.44600
N22         N  0.43574086  0.04029490  0.45531523     0.03500
N23         N  0.03064862  0.04023077  0.06711991    -0.23400
N24         N  0.42936367  0.46747051  0.03400242    -0.23900
N25         N  0.05739942  0.04031560  0.04452860     0.03100
H26         H  0.01833184  0.07053550  0.11287093     0.09000
H27         H  0.10951564  0.07055776  0.47814824     0.09100
N28         N  0.46249137  0.04022001  0.43272564    -0.23900
N29         N  0.06383370  0.46750656  0.46583068    -0.23500
N30         N  0.45196342  0.04032332  0.06071544     0.03500
C31         C  0.42485559  0.42677762  0.42018037     0.44900
C32         C  0.03539088  0.44274572  0.09056675    -0.04800
N33         N  0.06377817  0.04022301  0.46584868    -0.23500
H34         H  0.10965182  0.43725571  0.47809820     0.09100
N35         N  0.41229194  0.44362146  0.44844407    -0.44800
H36         H  0.01841455  0.43726043  0.11293246     0.09000
C37         C  0.06833164  0.08082917  0.07970631     0.44700
C38         C  0.40599523  0.44264242  0.03866318    -0.04300
Co39       Co  0.49122666  0.00385949  0.06469279     0.73800
N40         N  0.08094372  0.44373375  0.05145616    -0.44500
C41         C  0.42485659  0.08091303  0.42024891     0.45000
N42         N  0.44511098  0.06407106  0.08416222    -0.44500
Co43       Co  0.06137452  0.00386188  0.00527626     0.73900
C44         C  0.08715780  0.06503541  0.46116824    -0.04800
C45         C  0.45783671  0.44262582  0.40933215    -0.04300
N46         N  0.42936288  0.04023493  0.03396970    -0.23900
N47         N  0.04812874  0.44371696  0.41559824    -0.44600
H48         H  0.47485928  0.07063197  0.38707348     0.09000
C49         C  0.03531929  0.06503116  0.09051665    -0.04800
Cl50       Cl  0.99658061  0.00382287  0.99991680    -0.47800
C51         C  0.06840320  0.42693779  0.07975419     0.44800
H52         H  0.38368127  0.07063332  0.02158879     0.09000
N53         N  0.08089455  0.06400456  0.05143511    -0.44500
C54         C  0.13494033  0.14568266  0.36764755     0.88600
C55         C  0.17498683  0.14034076  0.37244131    -0.51600
C56         C  0.19505164  0.16028464  0.35111012     0.11600
C57         C  0.17346816  0.18359612  0.32711395     0.22200
C58         C  0.12895552  0.18308547  0.37398334    -0.52300
C59         C  0.14924359  0.20285026  0.35264180     0.11700
C60         C  0.12808403  0.14038615  0.32791391    -0.51800
C61         C  0.14836388  0.16031687  0.30679216     0.12200
H62         H  0.18637009  0.12246430  0.39084686     0.16800
H63         H  0.18994449  0.19979839  0.30977414     0.02500
H64         H  0.11048429  0.19297832  0.39342975     0.17100
H65         H  0.10908775  0.12254171  0.31748382     0.16900
C66         C  0.13504947  0.36193445  0.36766966     0.88600
C67         C  0.12818986  0.36721805  0.32793379    -0.51600
C68         C  0.14842700  0.34723837  0.30681273     0.11600
C69         C  0.17350838  0.32393242  0.32713756     0.22500
C70         C  0.12901079  0.32453947  0.37402182    -0.52300
C71         C  0.14926536  0.30473095  0.35267739     0.11700
C72         C  0.17510828  0.36720495  0.37244793    -0.51800
C73         C  0.19513814  0.34721282  0.35112298     0.12200
H74         H  0.10921458  0.38508579  0.31750128     0.16800
H75         H  0.18995348  0.30769374  0.30979874     0.02500
H76         H  0.11053013  0.31468481  0.39347938     0.17100
H77         H  0.18652540  0.38506789  0.39084338     0.16900
C78         C  0.12881473  0.36196219  0.13843420     0.88600
C79         C  0.16855075  0.36710188  0.13143555    -0.51600
C80         C  0.18968315  0.34714356  0.15168355     0.11600
C81         C  0.16936091  0.32397533  0.17690266     0.22500
C82         C  0.12231177  0.32456428  0.13256620    -0.52300
C83         C  0.14366280  0.30476320  0.15282714     0.11700
C84         C  0.12418395  0.36738872  0.17848010    -0.51800
C85         C  0.14550692  0.34738995  0.19851213     0.12200
H86         H  0.17897899  0.38489658  0.11239081     0.16800
H87         H  0.18670384  0.30774360  0.19335315     0.02500
H88         H  0.10274980  0.31470257  0.11419341     0.17100
H89         H  0.10584469  0.38531293  0.18988621     0.16900
C90         C  0.12879964  0.14570532  0.13840750     0.88600
C91         C  0.12416164  0.14024122  0.17844307    -0.51600
C92         C  0.14549304  0.16020084  0.19850110     0.11600
C93         C  0.16935689  0.18362450  0.17692518     0.22500
C94         C  0.12231516  0.18310884  0.13258014    -0.52300
C95         C  0.14366961  0.20287718  0.15286167     0.11700
C96         C  0.16853377  0.14053865  0.13140725    -0.51800
C97         C  0.18967215  0.16045925  0.15168679     0.12200
H98         H  0.10581509  0.12231673  0.18982422     0.16800
H99         H  0.18670468  0.19982857  0.19339823     0.02500
H100        H  0.10276697  0.19299928  0.11421190     0.17100
H101        H  0.17895566  0.12275164  0.11234478     0.16900
C102        C  0.36426479  0.14568609  0.36150904     0.88600
C103        C  0.36909419  0.14032530  0.32147623    -0.51600
C104        C  0.34773213  0.16022515  0.30137408     0.11600
C105        C  0.32366020  0.18350569  0.32291475     0.22500
C106        C  0.37051658  0.18310544  0.36745340    -0.52300
C107        C  0.34914181  0.20281874  0.34712968     0.11700
C108        C  0.32452765  0.14033704  0.36834111    -0.51800
C109        C  0.30336801  0.16022352  0.34803548     0.12200
H110        H  0.38757877  0.12249829  0.31012912     0.16800
H111        H  0.30629328  0.19967252  0.30641534     0.02500
H112        H  0.38994110  0.19304802  0.38591973     0.17100
H113        H  0.31412407  0.12252453  0.38737876     0.16900
C114        C  0.35812251  0.14573088  0.13216032     0.88600
C115        C  0.31807427  0.14026739  0.12750732    -0.51600
C116        C  0.29800354  0.16018813  0.14887521     0.11600
C117        C  0.31958104  0.18356952  0.17279281     0.22500
C118        C  0.36392678  0.18314827  0.12576581    -0.52300
C119        C  0.34363230  0.20287147  0.14715540     0.11700
C120        C  0.36513544  0.14050193  0.17187929    -0.51800
C121        C  0.34484793  0.16038520  0.19305744     0.12200
H122        H  0.30669529  0.12239277  0.10910285     0.16800
H123        H  0.30310109  0.19974314  0.19016771     0.02500
H124        H  0.38228362  0.19308259  0.10623920     0.17100
H125        H  0.38423602  0.12272558  0.18226000     0.16900
C126        C  0.35813087  0.36191503  0.13213880     0.88600
C127        C  0.36514813  0.36710091  0.17186549    -0.51600
C128        C  0.34488194  0.34718815  0.19302317     0.11600
C129        C  0.31961818  0.32403031  0.17273550     0.22500
C130        C  0.36395226  0.32449654  0.12569888    -0.52300
C131        C  0.34366839  0.30475425  0.14707865     0.11700
C132        C  0.31807503  0.36737188  0.12750067    -0.51800
C133        C  0.29802074  0.34742177  0.14884557     0.12200
H134        H  0.38424774  0.38486237  0.18226595     0.16800
H135        H  0.30315198  0.30783784  0.19009575     0.02500
H136        H  0.38231573  0.31457845  0.10616019     0.17100
H137        H  0.30667911  0.38525736  0.10911552     0.16900
C138        C  0.36436151  0.36185496  0.36147520     0.88600
C139        C  0.32461556  0.36717949  0.36831439    -0.51600
C140        C  0.30346903  0.34726417  0.34802939     0.11600
C141        C  0.32377803  0.32399015  0.32290925     0.22500
C142        C  0.37064794  0.32443274  0.36743467    -0.52300
C143        C  0.34927344  0.30470108  0.34712423     0.11700
C144        C  0.36917145  0.36718946  0.32143482    -0.51800
C145        C  0.34782615  0.34726358  0.30134831     0.12200
H146        H  0.31419750  0.38499090  0.38735013     0.16800
H147        H  0.30642016  0.30780637  0.30642389     0.02500
H148        H  0.39007689  0.31450479  0.38591227     0.17100
H149        H  0.38763332  0.38501912  0.31007073     0.16900
C150        C  0.34685279  0.34794389  0.23118260    -0.11100
C151        C  0.34773750  0.34799969  0.26313687    -0.12700
C152        C  0.34461935  0.23878139  0.14589337    -0.11100
C153        C  0.34465292  0.26884337  0.14584255    -0.12700
C154        C  0.34678370  0.15955602  0.23121408    -0.11100
C155        C  0.34765385  0.15946798  0.26316670    -0.12700
C156        C  0.35030890  0.23872837  0.34820496    -0.11100
C157        C  0.35037800  0.26878990  0.34822383    -0.12700
C158        C  0.25979193  0.15946082  0.14899261    -0.11100
C159        C  0.22783476  0.15960737  0.14983099    -0.12700
C160        C  0.14234896  0.26885251  0.15180583    -0.11100
C161        C  0.14236490  0.23878844  0.15183319    -0.12700
C162        C  0.22784748  0.34796108  0.14980817    -0.11100
C163        C  0.25980565  0.34811476  0.14895790    -0.12700
C164        C  0.14569028  0.34813215  0.23671218    -0.11100
C165        C  0.14656697  0.34804794  0.26866000    -0.12700
C166        C  0.23335012  0.34798157  0.35092248    -0.11100
C167        C  0.26530602  0.34799437  0.34998248    -0.12700
C168        C  0.14653491  0.15947867  0.26864231    -0.11100
C169        C  0.14567627  0.15940765  0.23669621    -0.12700
C170        C  0.23325703  0.15944929  0.35090735    -0.11100
C171        C  0.26520981  0.15944352  0.34996360    -0.12700
C172        C  0.14810709  0.26882239  0.35387548    -0.11100
C173        C  0.14811512  0.23875957  0.35385050    -0.12700
C174        C  0.09600255  0.10499251  0.40811481    -0.11100
C175        C  0.11326249  0.12401520  0.39034877    -0.12700
C176        C  0.10613267  0.38368747  0.11676829    -0.11100
C177        C  0.08842523  0.40274888  0.09947363    -0.12700
C178        C  0.39713716  0.10511496  0.09161869    -0.11100
C179        C  0.37983028  0.12410896  0.10940006    -0.12700
C180        C  0.08835981  0.10500083  0.09942895    -0.11100
C181        C  0.10609779  0.12402995  0.11672194    -0.12700
C182        C  0.38708584  0.38351799  0.38318887    -0.11100
C183        C  0.40483140  0.40256096  0.40047863    -0.12700
C184        C  0.38701224  0.12407713  0.38323893    -0.11100
C185        C  0.40480178  0.10508738  0.40053948    -0.12700
C186        C  0.11340590  0.38366710  0.39036135    -0.11100
C187        C  0.09615034  0.40273168  0.40810069    -0.12700
C188        C  0.39713505  0.40261240  0.09167628    -0.11100
C189        C  0.37982865  0.38358259  0.10941374    -0.12700
C190        C  0.41685103  0.42680671  0.57164591     0.44600
N191        N  0.45197707  0.46738157  0.56073944     0.03500
C192        C  0.45785027  0.06508410  0.90939604    -0.04400
H193        H  0.47483311  0.43710823  0.88698963     0.09000
C194        C  0.08727203  0.44273727  0.96113070    -0.04700
Co195      Co  0.43178563  0.50383491  0.99455953     0.74200
N196        N  0.46249048  0.46745680  0.93270226    -0.23900
Co197      Co  0.00192703  0.50383747  0.93514246     0.74100
C198        C  0.07644477  0.42692461  0.92812919     0.44700
N199        N  0.05743386  0.46741604  0.54453979     0.03100
N200        N  0.04121301  0.46739942  0.93909831     0.03200
N201        N  0.41227750  0.06403632  0.94847314    -0.44700
H202        H  0.38364499  0.43712097  0.52167049     0.09000
N203        N  0.43575037  0.46735867  0.95530749     0.03500
N204        N  0.04117215  0.04029211  0.93910619     0.03300
C205        C  0.07631309  0.08082200  0.92816010     0.44900
N206        N  0.03069142  0.46751652  0.56714353    -0.23400
C207        C  0.40601686  0.06509657  0.53859739    -0.04300
N208        N  0.44511922  0.44365311  0.58420424    -0.44500
N209        N  0.04804782  0.06398069  0.91560992    -0.44700
C210        C  0.41686698  0.08093907  0.57157829     0.44600
N211        N  0.43574080  0.04029488  0.95531519     0.03500
N212        N  0.03064860  0.04023078  0.56711985    -0.23400
N213        N  0.42936375  0.46747048  0.53400238    -0.23900
N214        N  0.05739942  0.04031555  0.54452859     0.03100
H215        H  0.01833152  0.07053560  0.61287117     0.09000
H216        H  0.10951550  0.07055775  0.97814831     0.09100
N217        N  0.46249133  0.04022001  0.93272561    -0.23900
N218        N  0.06383368  0.46750653  0.96583069    -0.23500
N219        N  0.45196343  0.04032326  0.56071541     0.03500
C220        C  0.42485560  0.42677761  0.92018040     0.44900
C221        C  0.03539088  0.44274579  0.59056696    -0.04800
N222        N  0.06377811  0.04022301  0.96584875    -0.23500
H223        H  0.10965209  0.43725555  0.97809839     0.09100
N224        N  0.41229191  0.44362144  0.94844404    -0.44800
H225        H  0.01841477  0.43726053  0.61293240     0.09000
C226        C  0.06833162  0.08082916  0.57970631     0.44700
C227        C  0.40599544  0.44264247  0.53866327    -0.04300
Co228      Co  0.49122668  0.00385947  0.56469274     0.73800
N229        N  0.08094372  0.44373371  0.55145627    -0.44500
C230        C  0.42485650  0.08091298  0.92024884     0.45000
N231        N  0.44511094  0.06407101  0.58416232    -0.44500
Co232      Co  0.06137461  0.00386186  0.50527625     0.73900
C233        C  0.08715775  0.06503540  0.96116833    -0.04800
C234        C  0.45783678  0.44262580  0.90933209    -0.04300
N235        N  0.42936301  0.04023496  0.53396971    -0.23900
N236        N  0.04812863  0.44371693  0.91559824    -0.44600
H237        H  0.47485921  0.07063197  0.88707340     0.09000
C238        C  0.03531929  0.06503115  0.59051652    -0.04800
Cl239      Cl  0.99658066  0.00382286  0.49991672    -0.47800
C240        C  0.06840322  0.42693786  0.57975434     0.44800
H241        H  0.38368150  0.07063332  0.52158879     0.09000
N242        N  0.08089458  0.06400451  0.55143515    -0.44500
C243        C  0.13494036  0.14568261  0.86764753     0.88600
C244        C  0.17498692  0.14034069  0.87244128    -0.51600
C245        C  0.19505167  0.16028462  0.85111002     0.11600
C246        C  0.17346821  0.18359617  0.82711389     0.22200
C247        C  0.12895547  0.18308546  0.87398341    -0.52300
C248        C  0.14924361  0.20285024  0.85264182     0.11700
C249        C  0.12808410  0.14038613  0.82791389    -0.51800
C250        C  0.14836387  0.16031686  0.80679211     0.12200
H251        H  0.18637008  0.12246445  0.89084654     0.16800
H252        H  0.18994431  0.19979822  0.80977431     0.02500
H253        H  0.11048456  0.19297808  0.89342941     0.17100
H254        H  0.10908778  0.12254155  0.81748372     0.16900
C255        C  0.13504942  0.36193444  0.86766966     0.88600
C256        C  0.12818991  0.36721803  0.82793380    -0.51600
C257        C  0.14842698  0.34723843  0.80681273     0.11600
C258        C  0.17350837  0.32393236  0.82713747     0.22500
C259        C  0.12901074  0.32453944  0.87402182    -0.52300
C260        C  0.14926526  0.30473096  0.85267732     0.11700
C261        C  0.17510821  0.36720487  0.87244787    -0.51800
C262        C  0.19513810  0.34721278  0.85112300     0.12200
H263        H  0.10921434  0.38508607  0.81750112     0.16800
H264        H  0.18995319  0.30769394  0.80979887     0.02500
H265        H  0.11053021  0.31468481  0.89347936     0.17100
H266        H  0.18652547  0.38506815  0.89084355     0.16900
C267        C  0.12881471  0.36196218  0.63843420     0.88600
C268        C  0.16855069  0.36710188  0.63143558    -0.51600
C269        C  0.18968310  0.34714353  0.65168350     0.11600
C270        C  0.16936084  0.32397535  0.67690263     0.22500
C271        C  0.12231185  0.32456433  0.63256630    -0.52300
C272        C  0.14366276  0.30476319  0.65282714     0.11700
C273        C  0.12418385  0.36738883  0.67848016    -0.51800
C274        C  0.14550687  0.34738993  0.69851212     0.12200
H275        H  0.17897899  0.38489671  0.61239079     0.16800
H276        H  0.18670390  0.30774346  0.69335323     0.02500
H277        H  0.10274929  0.31470230  0.61419300     0.17100
H278        H  0.10584505  0.38531266  0.68988598     0.16900
C279        C  0.12879970  0.14570531  0.63840744     0.88600
C280        C  0.12416178  0.14024124  0.67844295    -0.51600
C281        C  0.14549301  0.16020088  0.69850104     0.11600
C282        C  0.16935685  0.18362459  0.67692511     0.22500
C283        C  0.12231513  0.18310882  0.63258006    -0.52300
C284        C  0.14366953  0.20287721  0.65286157     0.11700
C285        C  0.16853389  0.14053866  0.63140715    -0.51800
C286        C  0.18967220  0.16045936  0.65168676     0.12200
H287        H  0.10581502  0.12231637  0.68982424     0.16800
H288        H  0.18670454  0.19982874  0.69339814     0.02500
H289        H  0.10276688  0.19299922  0.61421178     0.17100
H290        H  0.17895564  0.12275198  0.61234509     0.16900
C291        C  0.36426478  0.14568607  0.86150903     0.88600
C292        C  0.36909412  0.14032525  0.82147620    -0.51600
C293        C  0.34773206  0.16022510  0.80137405     0.11600
C294        C  0.32366018  0.18350566  0.82291474     0.22500
C295        C  0.37051658  0.18310541  0.86745333    -0.52300
C296        C  0.34914184  0.20281872  0.84712962     0.11700
C297        C  0.32452762  0.14033700  0.86834120    -0.51800
C298        C  0.30336803  0.16022350  0.84803549     0.12200
H299        H  0.38757871  0.12249824  0.81012907     0.16800
H300        H  0.30629326  0.19967246  0.80641539     0.02500
H301        H  0.38994125  0.19304807  0.88591981     0.17100
H302        H  0.31412416  0.12252476  0.88737863     0.16900
C303        C  0.35812255  0.14573093  0.63216031     0.88600
C304        C  0.31807439  0.14026747  0.62750751    -0.51600
C305        C  0.29800360  0.16018813  0.64887527     0.11600
C306        C  0.31958112  0.18356954  0.67279285     0.22500
C307        C  0.36392675  0.18314830  0.62576573    -0.52300
C308        C  0.34363237  0.20287148  0.64715540     0.11700
C309        C  0.36513562  0.14050202  0.67187929    -0.51800
C310        C  0.34484798  0.16038523  0.69305743     0.12200
H311        H  0.30669508  0.12239234  0.60910248     0.16800
H312        H  0.30310119  0.19974320  0.69016781     0.02500
H313        H  0.38228356  0.19308262  0.60623900     0.17100
H314        H  0.38423607  0.12272590  0.68225985     0.16900
C315        C  0.35813078  0.36191504  0.63213874     0.88600
C316        C  0.36514800  0.36710091  0.67186539    -0.51600
C317        C  0.34488188  0.34718827  0.69302315     0.11600
C318        C  0.31961804  0.32403033  0.67273558     0.22500
C319        C  0.36395217  0.32449655  0.62569891    -0.52300
C320        C  0.34366828  0.30475428  0.64707863     0.11700
C321        C  0.31807494  0.36737187  0.62750063    -0.51800
C322        C  0.29802066  0.34742186  0.64884560     0.12200
H323        H  0.38424797  0.38486264  0.68226592     0.16800
H324        H  0.30315214  0.30783815  0.69009560     0.02500
H325        H  0.38231577  0.31457844  0.60616022     0.17100
H326        H  0.30667898  0.38525730  0.60911531     0.16900
C327        C  0.36436146  0.36185497  0.86147521     0.88600
C328        C  0.32461558  0.36717939  0.86831427    -0.51600
C329        C  0.30346900  0.34726413  0.84802945     0.11600
C330        C  0.32377800  0.32399012  0.82290921     0.22500
C331        C  0.37064790  0.32443273  0.86743467    -0.52300
C332        C  0.34927346  0.30470108  0.84712416     0.11700
C333        C  0.36917142  0.36718946  0.82143481    -0.51800
C334        C  0.34782612  0.34726358  0.80134830     0.12200
H335        H  0.31419717  0.38499136  0.88735054     0.16800
H336        H  0.30642021  0.30780642  0.80642394     0.02500
H337        H  0.39007681  0.31450480  0.88591233     0.17100
H338        H  0.38763329  0.38501909  0.81007072     0.16900
C339        C  0.34685277  0.34794404  0.73118259    -0.11100
C340        C  0.34773755  0.34799969  0.76313685    -0.12700
C341        C  0.34461948  0.23878140  0.64589342    -0.11100
C342        C  0.34465287  0.26884337  0.64584252    -0.12700
C343        C  0.34678364  0.15955598  0.73121406    -0.11100
C344        C  0.34765375  0.15946795  0.76316667    -0.12700
C345        C  0.35030887  0.23872837  0.84820486    -0.11100
C346        C  0.35037797  0.26878989  0.84822373    -0.12700
C347        C  0.25979199  0.15946095  0.64899255    -0.11100
C348        C  0.22783482  0.15960747  0.64983093    -0.12700
C349        C  0.14234888  0.26885252  0.65180588    -0.11100
C350        C  0.14236478  0.23878845  0.65183310    -0.12700
C351        C  0.22784741  0.34796103  0.64980805    -0.11100
C352        C  0.25980557  0.34811476  0.64895783    -0.12700
C353        C  0.14569020  0.34813211  0.73671218    -0.11100
C354        C  0.14656690  0.34804793  0.76865998    -0.12700
C355        C  0.23335009  0.34798153  0.85092245    -0.11100
C356        C  0.26530600  0.34799433  0.84998255    -0.12700
C357        C  0.14653485  0.15947865  0.76864226    -0.11100
C358        C  0.14567620  0.15940764  0.73669614    -0.12700
C359        C  0.23325706  0.15944926  0.85090723    -0.11100
C360        C  0.26520985  0.15944346  0.84996352    -0.12700
C361        C  0.14810699  0.26882238  0.85387537    -0.11100
C362        C  0.14811504  0.23875958  0.85385043    -0.12700
C363        C  0.09600250  0.10499247  0.90811480    -0.11100
C364        C  0.11326248  0.12401516  0.89034877    -0.12700
C365        C  0.10613271  0.38368744  0.61676824    -0.11100
C366        C  0.08842520  0.40274887  0.59947371    -0.12700
C367        C  0.39713712  0.10511497  0.59161869    -0.11100
C368        C  0.37983030  0.12410902  0.60940006    -0.12700
C369        C  0.08835978  0.10500091  0.59942888    -0.11100
C370        C  0.10609787  0.12402992  0.61672192    -0.12700
C371        C  0.38708576  0.38351797  0.88318895    -0.11100
C372        C  0.40483136  0.40256092  0.90047871    -0.12700
C373        C  0.38701221  0.12407711  0.88323891    -0.11100
C374        C  0.40480171  0.10508737  0.90053950    -0.12700
C375        C  0.11340585  0.38366704  0.89036136    -0.11100
C376        C  0.09615025  0.40273166  0.90810063    -0.12700
C377        C  0.39713501  0.40261242  0.59167629    -0.11100
C378        C  0.37982856  0.38358258  0.60941367    -0.12700
C379        C  0.41685099  0.92680673  0.07164598     0.44600
N380        N  0.45197706  0.96738154  0.06073950     0.03500
C381        C  0.45785029  0.56508407  0.40939612    -0.04400
H382        H  0.47483326  0.93710805  0.38698953     0.09000
C383        C  0.08727213  0.94273728  0.46113080    -0.04700
Co384      Co  0.43178572  0.00383491  0.49455950     0.74200
N385        N  0.46249052  0.96745673  0.43270220    -0.23900
Co386      Co  0.00192704  0.00383746  0.43514238     0.74100
C387        C  0.07644483  0.92692467  0.42812921     0.44700
N388        N  0.05743388  0.96741607  0.04453969     0.03100
N389        N  0.04121304  0.96739945  0.43909835     0.03200
N390        N  0.41227756  0.56403641  0.44847322    -0.44700
H391        H  0.38364543  0.93712091  0.02167067     0.09000
N392        N  0.43575028  0.96735857  0.45530749     0.03500
N393        N  0.04117215  0.54029213  0.43910608     0.03300
C394        C  0.07631317  0.58082195  0.42815997     0.44900
N395        N  0.03069138  0.96751653  0.06714351    -0.23400
C396        C  0.40601675  0.56509648  0.03859745    -0.04300
N397        N  0.44511915  0.94365318  0.08420432    -0.44500
N398        N  0.04804789  0.56398060  0.41560980    -0.44700
C399        C  0.41686694  0.58093904  0.07157827     0.44600
N400        N  0.43574086  0.54029494  0.45531527     0.03500
N401        N  0.03064863  0.54023069  0.06711992    -0.23400
N402        N  0.42936381  0.96747040  0.03400236    -0.23900
N403        N  0.05739940  0.54031561  0.04452856     0.03100
H404        H  0.01833190  0.57053535  0.11287094     0.09000
H405        H  0.10951552  0.57055779  0.47814813     0.09100
N406        N  0.46249137  0.54022003  0.43272566    -0.23900
N407        N  0.06383366  0.96750652  0.46583071    -0.23500
N408        N  0.45196339  0.54032324  0.06071545     0.03500
C409        C  0.42485561  0.92677753  0.42018039     0.44900
C410        C  0.03539100  0.94274585  0.09056671    -0.04800
N411        N  0.06377811  0.54022306  0.46584872    -0.23500
H412        H  0.10965188  0.93725571  0.47809820     0.09100
N413        N  0.41229193  0.94362142  0.44844404    -0.44800
H414        H  0.01841436  0.93726045  0.11293292     0.09000
C415        C  0.06833162  0.58082915  0.07970632     0.44700
C416        C  0.40599543  0.94264232  0.03866317    -0.04300
Co417      Co  0.49122662  0.50385940  0.06469278     0.73800
N418        N  0.08094371  0.94373381  0.05145614    -0.44500
C419        C  0.42485655  0.58091297  0.42024887     0.45000
N420        N  0.44511093  0.56407096  0.08416224    -0.44500
Co421      Co  0.06137452  0.50386188  0.00527625     0.73900
C422        C  0.08715777  0.56503545  0.46116824    -0.04800
C423        C  0.45783678  0.94262569  0.40933217    -0.04300
N424        N  0.42936285  0.54023491  0.03396967    -0.23900
N425        N  0.04812874  0.94371699  0.41559821    -0.44600
H426        H  0.47485934  0.57063190  0.38707328     0.09000
C427        C  0.03531930  0.56503106  0.09051670    -0.04800
Cl428      Cl  0.99658058  0.50382275  0.99991681    -0.47800
C429        C  0.06840321  0.92693785  0.07975420     0.44800
H430        H  0.38368112  0.57063326  0.02158878     0.09000
N431        N  0.08089450  0.56400460  0.05143507    -0.44500
C432        C  0.13494031  0.64568267  0.36764756     0.88600
C433        C  0.17498679  0.64034087  0.37244124    -0.51600
C434        C  0.19505160  0.66028471  0.35111009     0.11600
C435        C  0.17346808  0.68359615  0.32711392     0.22200
C436        C  0.12895550  0.68308543  0.37398329    -0.52300
C437        C  0.14924352  0.70285026  0.35264181     0.11700
C438        C  0.12808394  0.64038605  0.32791387    -0.51800
C439        C  0.14836383  0.66031687  0.30679214     0.12200
H440        H  0.18637028  0.62246407  0.39084708     0.16800
H441        H  0.18994440  0.69979847  0.30977410     0.02500
H442        H  0.11048406  0.69297837  0.39342995     0.17100
H443        H  0.10908816  0.62254197  0.31748405     0.16900
C444        C  0.13504944  0.86193441  0.36766967     0.88600
C445        C  0.12818977  0.86721811  0.32793375    -0.51600
C446        C  0.14842699  0.84723836  0.30681273     0.11600
C447        C  0.17350833  0.82393240  0.32713755     0.22500
C448        C  0.12901077  0.82453946  0.37402176    -0.52300
C449        C  0.14926530  0.80473092  0.35267737     0.11700
C450        C  0.17510820  0.86720477  0.37244787    -0.51800
C451        C  0.19513814  0.84721275  0.35112301     0.12200
H452        H  0.10921486  0.88508548  0.31750149     0.16800
H453        H  0.18995349  0.80769367  0.30979864     0.02500
H454        H  0.11052989  0.81468469  0.39347958     0.17100
H455        H  0.18652562  0.88506821  0.39084381     0.16900
C456        C  0.12881474  0.86196220  0.13843419     0.88600
C457        C  0.16855075  0.86710191  0.13143555    -0.51600
C458        C  0.18968313  0.84714353  0.15168355     0.11600
C459        C  0.16936085  0.82397538  0.17690265     0.22500
C460        C  0.12231186  0.82456428  0.13256621    -0.52300
C461        C  0.14366280  0.80476318  0.15282717     0.11700
C462        C  0.12418394  0.86738876  0.17848008    -0.51800
C463        C  0.14550690  0.84738999  0.19851213     0.12200
H464        H  0.17897897  0.88489658  0.11239094     0.16800
H465        H  0.18670396  0.80774347  0.19335337     0.02500
H466        H  0.10274972  0.81470239  0.11419314     0.17100
H467        H  0.10584467  0.88531300  0.18988617     0.16900
C468        C  0.12879968  0.64570529  0.13840746     0.88600
C469        C  0.12416178  0.64024130  0.17844299    -0.51600
C470        C  0.14549302  0.66020088  0.19850105     0.11600
C471        C  0.16935689  0.68362460  0.17692513     0.22500
C472        C  0.12231514  0.68310880  0.13258008    -0.52300
C473        C  0.14366959  0.70287718  0.15286152     0.11700
C474        C  0.16853384  0.64053872  0.13140727    -0.51800
C475        C  0.18967219  0.66045933  0.15168676     0.12200
H476        H  0.10581486  0.62231635  0.18982442     0.16800
H477        H  0.18670454  0.69982865  0.19339809     0.02500
H478        H  0.10276682  0.69299921  0.11421181     0.17100
H479        H  0.17895589  0.62275153  0.11234467     0.16900
C480        C  0.36426478  0.64568603  0.36150902     0.88600
C481        C  0.36909420  0.64032517  0.32147618    -0.51600
C482        C  0.34773207  0.66022509  0.30137409     0.11600
C483        C  0.32366014  0.68350567  0.32291473     0.22500
C484        C  0.37051652  0.68310535  0.36745335    -0.52300
C485        C  0.34914181  0.70281869  0.34712970     0.11700
C486        C  0.32452763  0.64033696  0.36834111    -0.51800
C487        C  0.30336800  0.66022349  0.34803551     0.12200
H488        H  0.38757846  0.62249849  0.31012928     0.16800
H489        H  0.30629342  0.69967237  0.30641551     0.02500
H490        H  0.38994130  0.69304806  0.38591995     0.17100
H491        H  0.31412415  0.62252451  0.38737855     0.16900
C492        C  0.35812256  0.64573086  0.13216031     0.88600
C493        C  0.31807440  0.64026744  0.12750742    -0.51600
C494        C  0.29800357  0.66018803  0.14887521     0.11600
C495        C  0.31958104  0.68356942  0.17279283     0.22500
C496        C  0.36392674  0.68314823  0.12576584    -0.52300
C497        C  0.34363227  0.70287141  0.14715540     0.11700
C498        C  0.36513562  0.64050189  0.17187934    -0.51800
C499        C  0.34484792  0.66038514  0.19305745     0.12200
H500        H  0.30669507  0.62239226  0.10910225     0.16800
H501        H  0.30310103  0.69974302  0.19016774     0.02500
H502        H  0.38228376  0.69308265  0.10623899     0.17100
H503        H  0.38423593  0.62272599  0.18225982     0.16900
C504        C  0.35813083  0.86191504  0.13213879     0.88600
C505        C  0.36514808  0.86710096  0.17186548    -0.51600
C506        C  0.34488190  0.84718821  0.19302318     0.11600
C507        C  0.31961818  0.82403038  0.17273548     0.22500
C508        C  0.36395218  0.82449657  0.12569892    -0.52300
C509        C  0.34366834  0.80475424  0.14707866     0.11700
C510        C  0.31807499  0.86737192  0.12750068    -0.51800
C511        C  0.29802070  0.84742178  0.14884558     0.12200
H512        H  0.38424769  0.88486243  0.18226593     0.16800
H513        H  0.30315180  0.80783776  0.19009594     0.02500
H514        H  0.38231584  0.81457839  0.10616003     0.17100
H515        H  0.30667906  0.88525740  0.10911551     0.16900
C516        C  0.36436148  0.86185495  0.36147519     0.88600
C517        C  0.32461553  0.86717954  0.36831440    -0.51600
C518        C  0.30346904  0.84726417  0.34802939     0.11600
C519        C  0.32377801  0.82399006  0.32290922     0.22500
C520        C  0.37064789  0.82443276  0.36743464    -0.52300
C521        C  0.34927349  0.80470104  0.34712424     0.11700
C522        C  0.36917149  0.86718951  0.32143476    -0.51800
C523        C  0.34782617  0.84726349  0.30134831     0.12200
H524        H  0.31419759  0.88499077  0.38734987     0.16800
H525        H  0.30642036  0.80780644  0.30642411     0.02500
H526        H  0.39007711  0.81450472  0.38591255     0.17100
H527        H  0.38763291  0.88501876  0.31007094     0.16900
C528        C  0.34685281  0.84794391  0.23118260    -0.11100
C529        C  0.34773761  0.84799956  0.26313687    -0.12700
C530        C  0.34461930  0.73878134  0.14589338    -0.11100
C531        C  0.34465287  0.76884332  0.14584255    -0.12700
C532        C  0.34678369  0.65955604  0.23121409    -0.11100
C533        C  0.34765383  0.65946801  0.26316670    -0.12700
C534        C  0.35030887  0.73872831  0.34820497    -0.11100
C535        C  0.35037801  0.76878985  0.34822385    -0.12700
C536        C  0.25979197  0.65946083  0.14899259    -0.11100
C537        C  0.22783480  0.65960747  0.14983100    -0.12700
C538        C  0.14234894  0.76885249  0.15180580    -0.11100
C539        C  0.14236486  0.73878843  0.15183299    -0.12700
C540        C  0.22784745  0.84796107  0.14980817    -0.11100
C541        C  0.25980561  0.84811471  0.14895789    -0.12700
C542        C  0.14569023  0.84813218  0.23671218    -0.11100
C543        C  0.14656691  0.84804789  0.26866000    -0.12700
C544        C  0.23335013  0.84798160  0.35092246    -0.11100
C545        C  0.26530604  0.84799445  0.34998246    -0.12700
C546        C  0.14653488  0.65947855  0.26864227    -0.11100
C547        C  0.14567627  0.65940757  0.23669617    -0.12700
C548        C  0.23325699  0.65944931  0.35090719    -0.11100
C549        C  0.26520978  0.65944343  0.34996354    -0.12700
C550        C  0.14810705  0.76882236  0.35387548    -0.11100
C551        C  0.14811507  0.73875955  0.35385052    -0.12700
C552        C  0.09600249  0.60499254  0.40811480    -0.11100
C553        C  0.11326244  0.62401524  0.39034879    -0.12700
C554        C  0.10613275  0.88368753  0.11676826    -0.11100
C555        C  0.08842527  0.90274895  0.09947363    -0.12700
C556        C  0.39713712  0.60511487  0.09161870    -0.11100
C557        C  0.37983030  0.62410896  0.10940005    -0.12700
C558        C  0.08835978  0.60500083  0.09942895    -0.11100
C559        C  0.10609783  0.62402990  0.11672197    -0.12700
C560        C  0.38708580  0.88351799  0.38318886    -0.11100
C561        C  0.40483141  0.90256089  0.40047865    -0.12700
C562        C  0.38701222  0.62407707  0.38323892    -0.11100
C563        C  0.40480177  0.60508737  0.40053948    -0.12700
C564        C  0.11340587  0.88366708  0.39036136    -0.11100
C565        C  0.09615028  0.90273163  0.40810070    -0.12700
C566        C  0.39713501  0.90261242  0.09167630    -0.11100
C567        C  0.37982862  0.88358256  0.10941371    -0.12700
C568        C  0.41685111  0.92680674  0.57164591     0.44600
N569        N  0.45197711  0.96738161  0.56073943     0.03500
C570        C  0.45785034  0.56508406  0.90939598    -0.04400
H571        H  0.47483300  0.93710814  0.88698971     0.09000
C572        C  0.08727193  0.94273736  0.96113059    -0.04700
Co573      Co  0.43178568  0.00383488  0.99455952     0.74200
N574        N  0.46249053  0.96745678  0.93270223    -0.23900
Co575      Co  0.00192704  0.00383753  0.93514244     0.74100
C576        C  0.07644484  0.92692470  0.92812911     0.44700
N577        N  0.05743391  0.96741607  0.54453980     0.03100
N578        N  0.04121302  0.96739948  0.93909826     0.03200
N579        N  0.41227751  0.56403636  0.94847312    -0.44700
H580        H  0.38364497  0.93712098  0.52167048     0.09000
N581        N  0.43575042  0.96735866  0.95530747     0.03500
N582        N  0.04117213  0.54029213  0.93910616     0.03300
C583        C  0.07631310  0.58082201  0.92816003     0.44900
N584        N  0.03069146  0.96751652  0.56714351    -0.23400
C585        C  0.40601685  0.56509652  0.53859742    -0.04300
N586        N  0.44511932  0.94365314  0.58420422    -0.44500
N587        N  0.04804776  0.56398071  0.91560992    -0.44700
C588        C  0.41686694  0.58093904  0.57157828     0.44600
N589        N  0.43574081  0.54029489  0.95531520     0.03500
N590        N  0.03064858  0.54023078  0.56711985    -0.23400
N591        N  0.42936375  0.96747053  0.53400240    -0.23900
N592        N  0.05739937  0.54031559  0.54452860     0.03100
H593        H  0.01833178  0.57053553  0.61287079     0.09000
H594        H  0.10951597  0.57055793  0.97814842     0.09100
N595        N  0.46249132  0.54021999  0.93272565    -0.23900
N596        N  0.06383365  0.96750654  0.96583067    -0.23500
N597        N  0.45196342  0.54032327  0.56071542     0.03500
C598        C  0.42485558  0.92677761  0.92018041     0.44900
C599        C  0.03539092  0.94274580  0.59056692    -0.04800
N600        N  0.06377817  0.54022305  0.96584873    -0.23500
H601        H  0.10965254  0.93725553  0.97809873     0.09100
N602        N  0.41229193  0.94362145  0.94844404    -0.44800
H603        H  0.01841474  0.93726050  0.61293241     0.09000
C604        C  0.06833161  0.58082920  0.57970628     0.44700
C605        C  0.40599547  0.94264252  0.53866332    -0.04300
Co606      Co  0.49122665  0.50385948  0.56469274     0.73800
N607        N  0.08094381  0.94373378  0.55145631    -0.44500
C608        C  0.42485650  0.58091292  0.92024879     0.45000
N609        N  0.44511089  0.56407095  0.58416233    -0.44500
Co610      Co  0.06137457  0.50386188  0.50527625     0.73900
C611        C  0.08715772  0.56503540  0.96116816    -0.04800
C612        C  0.45783681  0.94262573  0.90933208    -0.04300
N613        N  0.42936298  0.54023496  0.53396967    -0.23900
N614        N  0.04812868  0.94371703  0.91559815    -0.44600
H615        H  0.47485913  0.57063179  0.88707364     0.09000
C616        C  0.03531922  0.56503120  0.59051661    -0.04800
Cl617      Cl  0.99658063  0.50382279  0.49991672    -0.47800
C618        C  0.06840326  0.92693789  0.57975433     0.44800
H619        H  0.38368122  0.57063328  0.52158867     0.09000
N620        N  0.08089453  0.56400455  0.55143511    -0.44500
C621        C  0.13494037  0.64568261  0.86764754     0.88600
C622        C  0.17498688  0.64034079  0.87244121    -0.51600
C623        C  0.19505165  0.66028468  0.85111002     0.11600
C624        C  0.17346815  0.68359617  0.82711385     0.22200
C625        C  0.12895547  0.68308541  0.87398335    -0.52300
C626        C  0.14924358  0.70285021  0.85264181     0.11700
C627        C  0.12808401  0.64038601  0.82791386    -0.51800
C628        C  0.14836383  0.66031685  0.80679211     0.12200
H629        H  0.18637026  0.62246425  0.89084677     0.16800
H630        H  0.18994425  0.69979827  0.80977427     0.02500
H631        H  0.11048435  0.69297814  0.89342963     0.17100
H632        H  0.10908820  0.62254180  0.81748396     0.16900
C633        C  0.13504950  0.86193445  0.86766964     0.88600
C634        C  0.12818991  0.86721809  0.82793372    -0.51600
C635        C  0.14842701  0.84723833  0.80681272     0.11600
C636        C  0.17350836  0.82393230  0.82713747     0.22500
C637        C  0.12901092  0.82453950  0.87402173    -0.52300
C638        C  0.14926526  0.80473090  0.85267733     0.11700
C639        C  0.17510829  0.86720480  0.87244784    -0.51800
C640        C  0.19513813  0.84721270  0.85112300     0.12200
H641        H  0.10921485  0.88508577  0.81750128     0.16800
H642        H  0.18995322  0.80769381  0.80979880     0.02500
H643        H  0.11052982  0.81468462  0.89347995     0.17100
H644        H  0.18652572  0.88506818  0.89084364     0.16900
C645        C  0.12881466  0.86196217  0.63843420     0.88600
C646        C  0.16855064  0.86710192  0.63143560    -0.51600
C647        C  0.18968305  0.84714358  0.65168351     0.11600
C648        C  0.16936081  0.82397535  0.67690261     0.22500
C649        C  0.12231172  0.82456424  0.63256617    -0.52300
C650        C  0.14366276  0.80476316  0.65282711     0.11700
C651        C  0.12418384  0.86738872  0.67848011    -0.51800
C652        C  0.14550682  0.84738994  0.69851211     0.12200
H653        H  0.17897892  0.88489678  0.61239082     0.16800
H654        H  0.18670390  0.80774349  0.69335323     0.02500
H655        H  0.10274980  0.81470249  0.61419339     0.17100
H656        H  0.10584460  0.88531294  0.68988619     0.16900
C657        C  0.12879967  0.64570530  0.63840743     0.88600
C658        C  0.12416171  0.64024125  0.67844294    -0.51600
C659        C  0.14549296  0.66020085  0.69850105     0.11600
C660        C  0.16935679  0.68362451  0.67692510     0.22500
C661        C  0.12231509  0.68310881  0.63258005    -0.52300
C662        C  0.14366952  0.70287716  0.65286157     0.11700
C663        C  0.16853381  0.64053870  0.63140722    -0.51800
C664        C  0.18967216  0.66045929  0.65168677     0.12200
H665        H  0.10581489  0.62231635  0.68982426     0.16800
H666        H  0.18670467  0.69982878  0.69339828     0.02500
H667        H  0.10276687  0.69299920  0.61421180     0.17100
H668        H  0.17895581  0.62275163  0.61234465     0.16900
C669        C  0.36426476  0.64568601  0.86150903     0.88600
C670        C  0.36909427  0.64032508  0.82147611    -0.51600
C671        C  0.34773202  0.66022506  0.80137407     0.11600
C672        C  0.32366015  0.68350564  0.82291472     0.22500
C673        C  0.37051647  0.68310528  0.86745323    -0.52300
C674        C  0.34914188  0.70281868  0.84712964     0.11700
C675        C  0.32452759  0.64033691  0.86834118    -0.51800
C676        C  0.30336801  0.66022347  0.84803551     0.12200
H677        H  0.38757814  0.62249886  0.81012950     0.16800
H678        H  0.30629341  0.69967234  0.80641553     0.02500
H679        H  0.38994175  0.69304822  0.88592024     0.17100
H680        H  0.31412418  0.62252473  0.88737842     0.16900
C681        C  0.35812253  0.64573086  0.63216033     0.88600
C682        C  0.31807435  0.64026750  0.62750749    -0.51600
C683        C  0.29800357  0.66018816  0.64887524     0.11600
C684        C  0.31958111  0.68356956  0.67279281     0.22500
C685        C  0.36392681  0.68314821  0.62576580    -0.52300
C686        C  0.34363241  0.70287146  0.64715538     0.11700
C687        C  0.36513548  0.64050200  0.67187929    -0.51800
C688        C  0.34484795  0.66038524  0.69305743     0.12200
H689        H  0.30669501  0.62239237  0.60910247     0.16800
H690        H  0.30310118  0.69974326  0.69016776     0.02500
H691        H  0.38228383  0.69308253  0.60623900     0.17100
H692        H  0.38423618  0.62272559  0.68226004     0.16900
C693        C  0.35813083  0.86191505  0.63213875     0.88600
C694        C  0.36514809  0.86710089  0.67186543    -0.51600
C695        C  0.34488191  0.84718823  0.69302315     0.11600
C696        C  0.31961809  0.82403031  0.67273556     0.22500
C697        C  0.36395220  0.82449657  0.62569892    -0.52300
C698        C  0.34366836  0.80475427  0.64707863     0.11700
C699        C  0.31807492  0.86737193  0.62750061    -0.51800
C700        C  0.29802068  0.84742179  0.64884559     0.12200
H701        H  0.38424795  0.88486245  0.68226591     0.16800
H702        H  0.30315217  0.80783810  0.69009558     0.02500
H703        H  0.38231587  0.81457839  0.60616003     0.17100
H704        H  0.30667914  0.88525705  0.60911566     0.16900
C705        C  0.36436142  0.86185496  0.86147521     0.88600
C706        C  0.32461552  0.86717948  0.86831435    -0.51600
C707        C  0.30346897  0.84726417  0.84802943     0.11600
C708        C  0.32377796  0.82399017  0.82290921     0.22500
C709        C  0.37064781  0.82443275  0.86743462    -0.52300
C710        C  0.34927341  0.80470107  0.84712416     0.11700
C711        C  0.36917138  0.86718951  0.82143482    -0.51800
C712        C  0.34782607  0.84726363  0.80134830     0.12200
H713        H  0.31419736  0.88499107  0.88735023     0.16800
H714        H  0.30642011  0.80780644  0.80642389     0.02500
H715        H  0.39007695  0.81450469  0.88591250     0.17100
H716        H  0.38763319  0.88501910  0.81007078     0.16900
C717        C  0.34685275  0.84794395  0.73118259    -0.11100
C718        C  0.34773751  0.84799972  0.76313685    -0.12700
C719        C  0.34461948  0.73878139  0.64589338    -0.11100
C720        C  0.34465287  0.76884336  0.64584251    -0.12700
C721        C  0.34678361  0.65955606  0.73121406    -0.11100
C722        C  0.34765374  0.65946797  0.76316667    -0.12700
C723        C  0.35030898  0.73872833  0.84820484    -0.11100
C724        C  0.35037798  0.76878987  0.84822372    -0.12700
C725        C  0.25979195  0.65946090  0.64899256    -0.11100
C726        C  0.22783478  0.65960745  0.64983093    -0.12700
C727        C  0.14234888  0.76885246  0.65180575    -0.11100
C728        C  0.14236477  0.73878840  0.65183306    -0.12700
C729        C  0.22784738  0.84796107  0.64980805    -0.11100
C730        C  0.25980555  0.84811467  0.64895781    -0.12700
C731        C  0.14569022  0.84813213  0.73671218    -0.11100
C732        C  0.14656700  0.84804785  0.76865998    -0.12700
C733        C  0.23335009  0.84798154  0.85092241    -0.11100
C734        C  0.26530599  0.84799441  0.84998254    -0.12700
C735        C  0.14653482  0.65947853  0.76864226    -0.11100
C736        C  0.14567618  0.65940752  0.73669615    -0.12700
C737        C  0.23325703  0.65944930  0.85090721    -0.11100
C738        C  0.26520981  0.65944339  0.84996351    -0.12700
C739        C  0.14810701  0.76882233  0.85387538    -0.11100
C740        C  0.14811512  0.73875952  0.85385047    -0.12700
C741        C  0.09600248  0.60499252  0.90811477    -0.11100
C742        C  0.11326254  0.62401518  0.89034881    -0.12700
C743        C  0.10613268  0.88368746  0.61676826    -0.11100
C744        C  0.08842523  0.90274891  0.59947371    -0.12700
C745        C  0.39713705  0.60511485  0.59161871    -0.11100
C746        C  0.37983022  0.62410889  0.60940010    -0.12700
C747        C  0.08835987  0.60500082  0.59942889    -0.11100
C748        C  0.10609787  0.62402991  0.61672192    -0.12700
C749        C  0.38708573  0.88351796  0.88318896    -0.11100
C750        C  0.40483133  0.90256086  0.90047875    -0.12700
C751        C  0.38701217  0.62407704  0.88323891    -0.11100
C752        C  0.40480172  0.60508736  0.90053948    -0.12700
C753        C  0.11340588  0.88366708  0.89036126    -0.11100
C754        C  0.09615022  0.90273161  0.90810060    -0.12700
C755        C  0.39713504  0.90261250  0.59167632    -0.11100
C756        C  0.37982857  0.88358265  0.60941367    -0.12700
C757        C  0.91685098  0.42680672  0.07164593     0.44600
N758        N  0.95197697  0.46738157  0.06073948     0.03500
C759        C  0.95785033  0.06508414  0.40939613    -0.04400
H760        H  0.97483339  0.43710813  0.38698937     0.09000
C761        C  0.58727215  0.44273727  0.46113082    -0.04700
Co762      Co  0.93178568  0.50383493  0.49455950     0.74200
N763        N  0.96249052  0.46745678  0.43270220    -0.23900
Co764      Co  0.50192707  0.50383749  0.43514239     0.74100
C765        C  0.57644483  0.42692464  0.42812924     0.44700
N766        N  0.55743386  0.46741603  0.04453971     0.03100
N767        N  0.54121309  0.46739945  0.43909833     0.03200
N768        N  0.91227757  0.06403638  0.44847322    -0.44700
H769        H  0.88364562  0.43712110  0.02167096     0.09000
N770        N  0.93575029  0.46735864  0.45530749     0.03500
N771        N  0.54117218  0.04029211  0.43910606     0.03300
C772        C  0.57631314  0.08082200  0.42816003     0.44900
N773        N  0.53069134  0.46751645  0.06714346    -0.23400
C774        C  0.90601675  0.06509654  0.03859743    -0.04300
N775        N  0.94511914  0.44365312  0.08420425    -0.44500
N776        N  0.54804787  0.06398066  0.41560984    -0.44700
C777        C  0.91686694  0.08093909  0.07157826     0.44600
N778        N  0.93574084  0.04029490  0.45531523     0.03500
N779        N  0.53064862  0.04023078  0.06711991    -0.23400
N780        N  0.92936364  0.46747051  0.03400243    -0.23900
N781        N  0.55739942  0.04031560  0.04452859     0.03100
H782        H  0.51833191  0.07053552  0.11287089     0.09000
H783        H  0.60951562  0.07055776  0.47814824     0.09100
N784        N  0.96249135  0.04022001  0.43272564    -0.23900
N785        N  0.56383370  0.46750655  0.46583069    -0.23500
N786        N  0.95196340  0.04032332  0.06071544     0.03500
C787        C  0.92485561  0.42677762  0.42018036     0.44900
C788        C  0.53539086  0.44274572  0.09056676    -0.04800
N789        N  0.56377815  0.04022301  0.46584868    -0.23500
H790        H  0.60965181  0.43725569  0.47809820     0.09100
N791        N  0.91229194  0.44362145  0.44844404    -0.44800
H792        H  0.51841453  0.43726044  0.11293247     0.09000
C793        C  0.56833170  0.08082913  0.07970633     0.44700
C794        C  0.90599521  0.44264242  0.03866318    -0.04300
Co795      Co  0.99122665  0.00385948  0.06469278     0.73800
N796        N  0.58094370  0.44373375  0.05145616    -0.44500
C797        C  0.92485657  0.08091303  0.42024892     0.45000
N798        N  0.94511096  0.06407106  0.08416222    -0.44500
Co799      Co  0.56137453  0.00386189  0.00527626     0.73900
C800        C  0.58715777  0.06503541  0.46116823    -0.04800
C801        C  0.95783678  0.44262579  0.40933218    -0.04300
N802        N  0.92936286  0.04023493  0.03396970    -0.23900
N803        N  0.54812874  0.44371696  0.41559824    -0.44600
H804        H  0.97485925  0.07063198  0.38707348     0.09000
C805        C  0.53531931  0.06503116  0.09051666    -0.04800
Cl806      Cl  0.49658062  0.00382286  0.99991681    -0.47800
C807        C  0.56840318  0.42693779  0.07975419     0.44800
H808        H  0.88368124  0.07063332  0.02158879     0.09000
N809        N  0.58089457  0.06400455  0.05143510    -0.44500
C810        C  0.63494032  0.14568265  0.36764756     0.88600
C811        C  0.67498679  0.14034082  0.37244123    -0.51600
C812        C  0.69505162  0.16028464  0.35111008     0.11600
C813        C  0.67346813  0.18359613  0.32711394     0.22200
C814        C  0.62895550  0.18308547  0.37398334    -0.52300
C815        C  0.64924357  0.20285026  0.35264181     0.11700
C816        C  0.62808401  0.14038615  0.32791390    -0.51800
C817        C  0.64836385  0.16031687  0.30679214     0.12200
H818        H  0.68637028  0.12246398  0.39084708     0.16800
H819        H  0.68994445  0.19979840  0.30977413     0.02500
H820        H  0.61048427  0.19297832  0.39342976     0.17100
H821        H  0.60908772  0.12254171  0.31748382     0.16900
C822        C  0.63504945  0.36193443  0.36766967     0.88600
C823        C  0.62818985  0.36721804  0.32793379    -0.51600
C824        C  0.64842698  0.34723837  0.30681273     0.11600
C825        C  0.67350835  0.32393239  0.32713753     0.22500
C826        C  0.62901075  0.32453944  0.37402181    -0.52300
C827        C  0.64926533  0.30473094  0.35267738     0.11700
C828        C  0.67510820  0.36720476  0.37244786    -0.51800
C829        C  0.69513813  0.34721279  0.35112299     0.12200
H830        H  0.60921457  0.38508580  0.31750129     0.16800
H831        H  0.68995344  0.30769373  0.30979871     0.02500
H832        H  0.61053009  0.31468480  0.39347939     0.17100
H833        H  0.68652570  0.38506826  0.39084397     0.16900
C834        C  0.62881473  0.36196219  0.13843419     0.88600
C835        C  0.66855075  0.36710190  0.13143556    -0.51600
C836        C  0.68968314  0.34714357  0.15168357     0.11600
C837        C  0.66936091  0.32397534  0.17690269     0.22500
C838        C  0.62231191  0.32456432  0.13256624    -0.52300
C839        C  0.64366281  0.30476320  0.15282714     0.11700
C840        C  0.62418394  0.36738871  0.17848010    -0.51800
C841        C  0.64550690  0.34738995  0.19851213     0.12200
H842        H  0.67897899  0.38489659  0.11239080     0.16800
H843        H  0.68670383  0.30774361  0.19335317     0.02500
H844        H  0.60274954  0.31470237  0.11419297     0.17100
H845        H  0.60584466  0.38531293  0.18988620     0.16900
C846        C  0.62879970  0.14570529  0.13840746     0.88600
C847        C  0.62416180  0.14024127  0.17844298    -0.51600
C848        C  0.64549306  0.16020086  0.19850105     0.11600
C849        C  0.66935694  0.18362455  0.17692511     0.22500
C850        C  0.62231518  0.18310880  0.13258009    -0.52300
C851        C  0.64366963  0.20287718  0.15286153     0.11700
C852        C  0.66853389  0.14053862  0.13140719    -0.51800
C853        C  0.68967224  0.16045927  0.15168677     0.12200
H854        H  0.60581489  0.12231634  0.18982440     0.16800
H855        H  0.68670459  0.19982859  0.19339810     0.02500
H856        H  0.60276683  0.19299923  0.11421181     0.17100
H857        H  0.67895570  0.12275179  0.11234495     0.16900
C858        C  0.86426481  0.14568610  0.36150903     0.88600
C859        C  0.86909418  0.14032531  0.32147623    -0.51600
C860        C  0.84773212  0.16022514  0.30137408     0.11600
C861        C  0.82366019  0.18350569  0.32291475     0.22500
C862        C  0.87051658  0.18310545  0.36745339    -0.52300
C863        C  0.84914180  0.20281875  0.34712969     0.11700
C864        C  0.82452767  0.14033704  0.36834111    -0.51800
C865        C  0.80336801  0.16022352  0.34803549     0.12200
H866        H  0.88757880  0.12249826  0.31012908     0.16800
H867        H  0.80629328  0.19967250  0.30641536     0.02500
H868        H  0.88994113  0.19304806  0.38591977     0.17100
H869        H  0.81412412  0.12252454  0.38737874     0.16900
C870        C  0.85812257  0.14573090  0.13216033     0.88600
C871        C  0.81807440  0.14026741  0.12750737    -0.51600
C872        C  0.79800362  0.16018811  0.14887520     0.11600
C873        C  0.81958109  0.18356949  0.17279282     0.22500
C874        C  0.86392680  0.18314829  0.12576580    -0.52300
C875        C  0.84363230  0.20287148  0.14715540     0.11700
C876        C  0.86513562  0.14050190  0.17187934    -0.51800
C877        C  0.84484796  0.16038521  0.19305745     0.12200
H878        H  0.80669530  0.12239256  0.10910265     0.16800
H879        H  0.80310107  0.19974312  0.19016772     0.02500
H880        H  0.88228359  0.19308262  0.10623919     0.17100
H881        H  0.88423578  0.12272599  0.18225981     0.16900
C882        C  0.85813084  0.36191503  0.13213880     0.88600
C883        C  0.86514810  0.36710091  0.17186549    -0.51600
C884        C  0.84488192  0.34718815  0.19302318     0.11600
C885        C  0.81961817  0.32403030  0.17273551     0.22500
C886        C  0.86395224  0.32449654  0.12569888    -0.52300
C887        C  0.84366837  0.30475425  0.14707865     0.11700
C888        C  0.81807500  0.36737187  0.12750068    -0.51800
C889        C  0.79802072  0.34742173  0.14884558     0.12200
H890        H  0.88424772  0.38486237  0.18226595     0.16800
H891        H  0.80315198  0.30783783  0.19009576     0.02500
H892        H  0.88231571  0.31457846  0.10616019     0.17100
H893        H  0.80667905  0.38525734  0.10911550     0.16900
C894        C  0.86436148  0.36185496  0.36147520     0.88600
C895        C  0.82461554  0.36717949  0.36831439    -0.51600
C896        C  0.80346901  0.34726417  0.34802939     0.11600
C897        C  0.82377801  0.32399015  0.32290925     0.22500
C898        C  0.87064792  0.32443274  0.36743467    -0.52300
C899        C  0.84927342  0.30470108  0.34712423     0.11700
C900        C  0.86917143  0.36718946  0.32143482    -0.51800
C901        C  0.84782612  0.34726358  0.30134831     0.12200
H902        H  0.81419748  0.38499090  0.38735013     0.16800
H903        H  0.80642014  0.30780637  0.30642389     0.02500
H904        H  0.89007687  0.31450479  0.38591227     0.17100
H905        H  0.88763330  0.38501912  0.31007073     0.16900
C906        C  0.84685277  0.34794389  0.23118260    -0.11100
C907        C  0.84773747  0.34799969  0.26313687    -0.12700
C908        C  0.84461933  0.23878140  0.14589337    -0.11100
C909        C  0.84465289  0.26884337  0.14584255    -0.12700
C910        C  0.84678369  0.15955601  0.23121408    -0.11100
C911        C  0.84765382  0.15946797  0.26316670    -0.12700
C912        C  0.85030887  0.23872837  0.34820496    -0.11100
C913        C  0.85037797  0.26878990  0.34822383    -0.12700
C914        C  0.75979203  0.15946080  0.14899260    -0.11100
C915        C  0.72783487  0.15960738  0.14983100    -0.12700
C916        C  0.64234895  0.26885251  0.15180579    -0.11100
C917        C  0.64236489  0.23878843  0.15183299    -0.12700
C918        C  0.72784747  0.34796103  0.14980816    -0.11100
C919        C  0.75980563  0.34811463  0.14895788    -0.12700
C920        C  0.64569026  0.34813215  0.23671218    -0.11100
C921        C  0.64656695  0.34804794  0.26866000    -0.12700
C922        C  0.73335011  0.34798155  0.35092246    -0.11100
C923        C  0.76530600  0.34799437  0.34998248    -0.12700
C924        C  0.64653488  0.15947867  0.26864227    -0.11100
C925        C  0.64567626  0.15940767  0.23669617    -0.12700
C926        C  0.73325701  0.15944927  0.35090720    -0.11100
C927        C  0.76520980  0.15944350  0.34996355    -0.12700
C928        C  0.64810707  0.26882238  0.35387548    -0.11100
C929        C  0.64811510  0.23875957  0.35385050    -0.12700
C930        C  0.59600253  0.10499251  0.40811481    -0.11100
C931        C  0.61326247  0.12401520  0.39034877    -0.12700
C932        C  0.60613265  0.38368746  0.11676829    -0.11100
C933        C  0.58842521  0.40274887  0.09947363    -0.12700
C934        C  0.89713714  0.10511495  0.09161868    -0.11100
C935        C  0.87983030  0.12410897  0.10940006    -0.12700
C936        C  0.58835983  0.10500082  0.09942894    -0.11100
C937        C  0.60609782  0.12402995  0.11672194    -0.12700
C938        C  0.88708582  0.38351800  0.38318888    -0.11100
C939        C  0.90483141  0.40256097  0.40047862    -0.12700
C940        C  0.88701225  0.12407714  0.38323893    -0.11100
C941        C  0.90480177  0.10508738  0.40053948    -0.12700
C942        C  0.61340589  0.38366709  0.39036135    -0.11100
C943        C  0.59615032  0.40273168  0.40810069    -0.12700
C944        C  0.89713503  0.40261240  0.09167628    -0.11100
C945        C  0.87982862  0.38358259  0.10941374    -0.12700
C946        C  0.91685100  0.42680671  0.57164591     0.44600
N947        N  0.95197705  0.46738157  0.56073944     0.03500
C948        C  0.95785039  0.06508414  0.90939599    -0.04400
H949        H  0.97483309  0.43710822  0.88698963     0.09000
C950        C  0.58727203  0.44273729  0.96113070    -0.04700
Co951      Co  0.93178561  0.50383491  0.99455953     0.74200
N952        N  0.96249046  0.46745679  0.93270226    -0.23900
Co953      Co  0.50192703  0.50383748  0.93514246     0.74100
C954        C  0.57644484  0.42692464  0.92812915     0.44700
N955        N  0.55743386  0.46741604  0.54453978     0.03100
N956        N  0.54121301  0.46739940  0.93909831     0.03200
N957        N  0.91227751  0.06403633  0.94847311    -0.44700
H958        H  0.88364497  0.43712097  0.52167049     0.09000
N959        N  0.93575036  0.46735867  0.95530748     0.03500
N960        N  0.54117213  0.04029212  0.93910619     0.03300
C961        C  0.57631307  0.08082201  0.92816010     0.44900
N962        N  0.53069143  0.46751652  0.56714353    -0.23400
C963        C  0.90601683  0.06509657  0.53859738    -0.04300
N964        N  0.94511920  0.44365311  0.58420424    -0.44500
N965        N  0.54804781  0.06398070  0.91560992    -0.44700
C966        C  0.91686696  0.08093907  0.57157829     0.44600
N967        N  0.93574081  0.04029487  0.95531517     0.03500
N968        N  0.53064860  0.04023078  0.56711984    -0.23400
N969        N  0.92936373  0.46747048  0.53400238    -0.23900
N970        N  0.55739939  0.04031556  0.54452859     0.03100
H971        H  0.51833179  0.07053551  0.61287088     0.09000
H972        H  0.60951548  0.07055775  0.97814831     0.09100
N973        N  0.96249134  0.04022002  0.93272564    -0.23900
N974        N  0.56383367  0.46750653  0.96583070    -0.23500
N975        N  0.95196341  0.04032327  0.56071541     0.03500
C976        C  0.92485558  0.42677761  0.92018040     0.44900
C977        C  0.53539090  0.44274579  0.59056697    -0.04800
N978        N  0.56377808  0.04022302  0.96584874    -0.23500
H979        H  0.60965217  0.43725557  0.97809847     0.09100
N980        N  0.91229189  0.44362144  0.94844404    -0.44800
H981        H  0.51841484  0.43726052  0.61293236     0.09000
C982        C  0.56833165  0.08082916  0.57970629     0.44700
C983        C  0.90599541  0.44264247  0.53866327    -0.04300
Co984      Co  0.99122666  0.00385947  0.56469274     0.73800
N985        N  0.58094374  0.44373373  0.55145626    -0.44500
C986        C  0.92485652  0.08091297  0.92024883     0.45000
N987        N  0.94511091  0.06407101  0.58416232    -0.44500
Co988      Co  0.56137460  0.00386186  0.50527625     0.73900
C989        C  0.58715773  0.06503541  0.96116832    -0.04800
C990        C  0.95783676  0.44262580  0.90933209    -0.04300
N991        N  0.92936299  0.04023496  0.53396970    -0.23900
N992        N  0.54812865  0.44371693  0.91559824    -0.44600
H993        H  0.97485904  0.07063189  0.88707385     0.09000
C994        C  0.53531925  0.06503118  0.59051660    -0.04800
Cl995      Cl  0.49658067  0.00382286  0.49991672    -0.47800
C996        C  0.56840327  0.42693790  0.57975436     0.44800
H997        H  0.88368148  0.07063332  0.52158879     0.09000
N998        N  0.58089457  0.06400451  0.55143514    -0.44500
C999        C  0.63494037  0.14568261  0.86764753     0.88600
C1000       C  0.67498692  0.14034069  0.87244127    -0.51600
C1001       C  0.69505166  0.16028463  0.85111001     0.11600
C1002       C  0.67346819  0.18359617  0.82711388     0.22200
C1003       C  0.62895546  0.18308546  0.87398341    -0.52300
C1004       C  0.64924358  0.20285024  0.85264182     0.11700
C1005       C  0.62808409  0.14038612  0.82791389    -0.51800
C1006       C  0.64836385  0.16031686  0.80679211     0.12200
H1007       H  0.68637008  0.12246447  0.89084652     0.16800
H1008       H  0.68994428  0.19979822  0.80977431     0.02500
H1009       H  0.61048454  0.19297807  0.89342942     0.17100
H1010       H  0.60908776  0.12254154  0.81748373     0.16900
C1011       C  0.63504946  0.36193446  0.86766964     0.88600
C1012       C  0.62818992  0.36721803  0.82793378    -0.51600
C1013       C  0.64842698  0.34723842  0.80681272     0.11600
C1014       C  0.67350838  0.32393236  0.82713745     0.22500
C1015       C  0.62901090  0.32453948  0.87402178    -0.52300
C1016       C  0.64926529  0.30473096  0.85267733     0.11700
C1017       C  0.67510825  0.36720488  0.87244784    -0.51800
C1018       C  0.69513811  0.34721278  0.85112298     0.12200
H1019       H  0.60921438  0.38508601  0.81750114     0.16800
H1020       H  0.68995319  0.30769393  0.80979883     0.02500
H1021       H  0.61053003  0.31468466  0.89347976     0.17100
H1022       H  0.68652554  0.38506819  0.89084357     0.16900
C1023       C  0.62881470  0.36196218  0.63843421     0.88600
C1024       C  0.66855067  0.36710188  0.63143559    -0.51600
C1025       C  0.68968308  0.34714352  0.65168350     0.11600
C1026       C  0.66936081  0.32397533  0.67690262     0.22500
C1027       C  0.62231176  0.32456430  0.63256622    -0.52300
C1028       C  0.64366274  0.30476318  0.65282710     0.11700
C1029       C  0.62418383  0.36738883  0.67848016    -0.51800
C1030       C  0.64550685  0.34738993  0.69851212     0.12200
H1031       H  0.67897897  0.38489671  0.61239079     0.16800
H1032       H  0.68670388  0.30774344  0.69335322     0.02500
H1033       H  0.60274962  0.31470249  0.61419322     0.17100
H1034       H  0.60584503  0.38531266  0.68988598     0.16900
C1035       C  0.62879969  0.14570530  0.63840745     0.88600
C1036       C  0.62416176  0.14024123  0.67844296    -0.51600
C1037       C  0.64549299  0.16020086  0.69850104     0.11600
C1038       C  0.66935683  0.18362458  0.67692511     0.22500
C1039       C  0.62231511  0.18310880  0.63258006    -0.52300
C1040       C  0.64366951  0.20287718  0.65286157     0.11700
C1041       C  0.66853388  0.14053865  0.63140715    -0.51800
C1042       C  0.68967218  0.16045934  0.65168676     0.12200
H1043       H  0.60581498  0.12231635  0.68982426     0.16800
H1044       H  0.68670449  0.19982871  0.69339811     0.02500
H1045       H  0.60276687  0.19299918  0.61421179     0.17100
H1046       H  0.67895563  0.12275197  0.61234507     0.16900
C1047       C  0.86426476  0.14568606  0.86150903     0.88600
C1048       C  0.86909409  0.14032525  0.82147620    -0.51600
C1049       C  0.84773203  0.16022510  0.80137405     0.11600
C1050       C  0.82366017  0.18350567  0.82291474     0.22500
C1051       C  0.87051657  0.18310540  0.86745334    -0.52300
C1052       C  0.84914186  0.20281872  0.84712962     0.11700
C1053       C  0.82452760  0.14033700  0.86834120    -0.51800
C1054       C  0.80336801  0.16022350  0.84803549     0.12200
H1055       H  0.88757868  0.12249824  0.81012907     0.16800
H1056       H  0.80629325  0.19967249  0.80641539     0.02500
H1057       H  0.88994125  0.19304804  0.88591980     0.17100
H1058       H  0.81412414  0.12252476  0.88737863     0.16900
C1059       C  0.85812257  0.14573093  0.63216032     0.88600
C1060       C  0.81807438  0.14026749  0.62750750    -0.51600
C1061       C  0.79800359  0.16018814  0.64887526     0.11600
C1062       C  0.81958111  0.18356955  0.67279283     0.22500
C1063       C  0.86392684  0.18314831  0.62576576    -0.52300
C1064       C  0.84363239  0.20287148  0.64715540     0.11700
C1065       C  0.86513555  0.14050207  0.67187926    -0.51800
C1066       C  0.84484796  0.16038521  0.69305743     0.12200
H1067       H  0.80669507  0.12239236  0.60910248     0.16800
H1068       H  0.80310117  0.19974321  0.69016779     0.02500
H1069       H  0.88228365  0.19308258  0.60623919     0.17100
H1070       H  0.88423637  0.12272566  0.68226002     0.16900
C1071       C  0.85813085  0.36191502  0.63213875     0.88600
C1072       C  0.86514816  0.36710095  0.67186544    -0.51600
C1073       C  0.84488191  0.34718828  0.69302315     0.11600
C1074       C  0.81961809  0.32403034  0.67273559     0.22500
C1075       C  0.86395221  0.32449655  0.62569892    -0.52300
C1076       C  0.84366836  0.30475428  0.64707864     0.11700
C1077       C  0.81807496  0.36737191  0.62750061    -0.51800
C1078       C  0.79802070  0.34742185  0.64884560     0.12200
H1079       H  0.88424778  0.38486228  0.68226576     0.16800
H1080       H  0.80315222  0.30783819  0.69009555     0.02500
H1081       H  0.88231585  0.31457839  0.60616006     0.17100
H1082       H  0.80667914  0.38525711  0.60911552     0.16900
C1083       C  0.86436143  0.36185497  0.86147521     0.88600
C1084       C  0.82461555  0.36717939  0.86831427    -0.51600
C1085       C  0.80346898  0.34726413  0.84802945     0.11600
C1086       C  0.82377798  0.32399012  0.82290921     0.22500
C1087       C  0.87064787  0.32443273  0.86743467    -0.52300
C1088       C  0.84927343  0.30470108  0.84712416     0.11700
C1089       C  0.86917139  0.36718946  0.82143481    -0.51800
C1090       C  0.84782610  0.34726358  0.80134830     0.12200
H1091       H  0.81419715  0.38499136  0.88735054     0.16800
H1092       H  0.80642018  0.30780642  0.80642394     0.02500
H1093       H  0.89007679  0.31450480  0.88591232     0.17100
H1094       H  0.88763327  0.38501909  0.81007072     0.16900
C1095       C  0.84685276  0.34794405  0.73118259    -0.11100
C1096       C  0.84773753  0.34799969  0.76313685    -0.12700
C1097       C  0.84461947  0.23878140  0.64589340    -0.11100
C1098       C  0.84465289  0.26884337  0.64584252    -0.12700
C1099       C  0.84678362  0.15955598  0.73121406    -0.11100
C1100       C  0.84765373  0.15946795  0.76316667    -0.12700
C1101       C  0.85030899  0.23872836  0.84820484    -0.11100
C1102       C  0.85037800  0.26878989  0.84822373    -0.12700
C1103       C  0.75979197  0.15946095  0.64899255    -0.11100
C1104       C  0.72783480  0.15960747  0.64983093    -0.12700
C1105       C  0.64234888  0.26885249  0.65180573    -0.11100
C1106       C  0.64236477  0.23878842  0.65183305    -0.12700
C1107       C  0.72784740  0.34796103  0.64980805    -0.11100
C1108       C  0.75980557  0.34811476  0.64895783    -0.12700
C1109       C  0.64569017  0.34813211  0.73671218    -0.11100
C1110       C  0.64656688  0.34804793  0.76865998    -0.12700
C1111       C  0.73335009  0.34798153  0.85092245    -0.11100
C1112       C  0.76530599  0.34799432  0.84998255    -0.12700
C1113       C  0.64653483  0.15947865  0.76864226    -0.11100
C1114       C  0.64567618  0.15940764  0.73669615    -0.12700
C1115       C  0.73325704  0.15944926  0.85090722    -0.11100
C1116       C  0.76520983  0.15944346  0.84996352    -0.12700
C1117       C  0.64810698  0.26882238  0.85387536    -0.11100
C1118       C  0.64811501  0.23875958  0.85385043    -0.12700
C1119       C  0.59600252  0.10499246  0.90811480    -0.11100
C1120       C  0.61326256  0.12401513  0.89034880    -0.12700
C1121       C  0.60613270  0.38368743  0.61676824    -0.11100
C1122       C  0.58842522  0.40274887  0.59947370    -0.12700
C1123       C  0.89713710  0.10511496  0.59161869    -0.11100
C1124       C  0.87983028  0.12410902  0.60940006    -0.12700
C1125       C  0.58835987  0.10500087  0.59942886    -0.11100
C1126       C  0.60609789  0.12402991  0.61672192    -0.12700
C1127       C  0.88708574  0.38351797  0.88318895    -0.11100
C1128       C  0.90483133  0.40256092  0.90047871    -0.12700
C1129       C  0.88701219  0.12407710  0.88323891    -0.11100
C1130       C  0.90480172  0.10508736  0.90053948    -0.12700
C1131       C  0.61340586  0.38366706  0.89036126    -0.11100
C1132       C  0.59615027  0.40273165  0.90810059    -0.12700
C1133       C  0.89713500  0.40261243  0.59167628    -0.11100
C1134       C  0.87982858  0.38358257  0.60941367    -0.12700
C1135       C  0.91685098  0.92680675  0.07164599     0.44600
N1136       N  0.95197710  0.96738152  0.06073950     0.03500
C1137       C  0.95785025  0.56508407  0.40939612    -0.04400
H1138       H  0.97483318  0.93710806  0.38698953     0.09000
C1139       C  0.58727211  0.94273728  0.46113080    -0.04700
Co1140     Co  0.93178571  0.00383491  0.49455950     0.74200
N1141       N  0.96249053  0.96745672  0.43270221    -0.23900
Co1142     Co  0.50192702  0.00383746  0.43514238     0.74100
C1143       C  0.57644481  0.92692467  0.42812921     0.44700
N1144       N  0.55743389  0.96741608  0.04453972     0.03100
N1145       N  0.54121302  0.96739945  0.43909836     0.03200
N1146       N  0.91227753  0.56403642  0.44847322    -0.44700
H1147       H  0.88364539  0.93712095  0.02167068     0.09000
N1148       N  0.93575037  0.96735858  0.45530750     0.03500
N1149       N  0.54117216  0.54029216  0.43910609     0.03300
C1150       C  0.57631315  0.58082199  0.42816000     0.44900
N1151       N  0.53069144  0.96751655  0.06714351    -0.23400
C1152       C  0.90601672  0.56509648  0.03859745    -0.04300
N1153       N  0.94511916  0.94365318  0.08420432    -0.44500
N1154       N  0.54804785  0.56398071  0.41560983    -0.44700
C1155       C  0.91686691  0.58093904  0.07157827     0.44600
N1156       N  0.93574082  0.54029495  0.45531528     0.03500
N1157       N  0.53064862  0.54023070  0.06711993    -0.23400
N1158       N  0.92936381  0.96747039  0.03400235    -0.23900
N1159       N  0.55739939  0.54031561  0.04452856     0.03100
H1160       H  0.51833177  0.57053539  0.11287102     0.09000
H1161       H  0.60951550  0.57055778  0.47814812     0.09100
N1162       N  0.96249132  0.54022002  0.43272566    -0.23900
N1163       N  0.56383364  0.96750652  0.46583071    -0.23500
N1164       N  0.95196337  0.54032324  0.06071545     0.03500
C1165       C  0.92485561  0.92677754  0.42018039     0.44900
C1166       C  0.53539101  0.94274585  0.09056673    -0.04800
N1167       N  0.56377811  0.54022308  0.46584870    -0.23500
H1168       H  0.60965186  0.93725571  0.47809820     0.09100
N1169       N  0.91229194  0.94362141  0.44844404    -0.44800
H1170       H  0.51841440  0.93726045  0.11293283     0.09000
C1171       C  0.56833160  0.58082915  0.07970632     0.44700
C1172       C  0.90599545  0.94264235  0.03866319    -0.04300
Co1173     Co  0.99122661  0.50385939  0.06469278     0.73800
N1174       N  0.58094373  0.94373375  0.05145614    -0.44500
C1175       C  0.92485652  0.58091298  0.42024887     0.45000
N1176       N  0.94511090  0.56407096  0.08416224    -0.44500
Co1177     Co  0.56137450  0.50386188  0.00527626     0.73900
C1178       C  0.58715778  0.56503547  0.46116825    -0.04800
C1179       C  0.95783679  0.94262569  0.40933213    -0.04300
N1180       N  0.92936283  0.54023491  0.03396967    -0.23900
N1181       N  0.54812872  0.94371699  0.41559821    -0.44600
H1182       H  0.97485931  0.57063189  0.38707327     0.09000
C1183       C  0.53531929  0.56503106  0.09051666    -0.04800
Cl1184     Cl  0.49658058  0.50382276  0.99991681    -0.47800
C1185       C  0.56840321  0.92693782  0.07975418     0.44800
H1186       H  0.88368109  0.57063326  0.02158878     0.09000
N1187       N  0.58089448  0.56400460  0.05143507    -0.44500
C1188       C  0.63494031  0.64568263  0.36764755     0.88600
C1189       C  0.67498677  0.64034084  0.37244124    -0.51600
C1190       C  0.69505160  0.66028468  0.35111015     0.11600
C1191       C  0.67346815  0.68359617  0.32711390     0.22200
C1192       C  0.62895549  0.68308540  0.37398327    -0.52300
C1193       C  0.64924353  0.70285024  0.35264182     0.11700
C1194       C  0.62808390  0.64038598  0.32791382    -0.51800
C1195       C  0.64836385  0.66031686  0.30679215     0.12200
H1196       H  0.68637026  0.62246404  0.39084714     0.16800
H1197       H  0.68994430  0.69979825  0.30977435     0.02500
H1198       H  0.61048405  0.69297831  0.39342989     0.17100
H1199       H  0.60908842  0.62254218  0.31748416     0.16900
C1200       C  0.63504944  0.86193442  0.36766967     0.88600
C1201       C  0.62818991  0.86721808  0.32793379    -0.51600
C1202       C  0.64842701  0.84723837  0.30681273     0.11600
C1203       C  0.67350834  0.82393238  0.32713756     0.22500
C1204       C  0.62901075  0.82453946  0.37402175    -0.52300
C1205       C  0.64926528  0.80473091  0.35267737     0.11700
C1206       C  0.67510820  0.86720476  0.37244789    -0.51800
C1207       C  0.69513813  0.84721274  0.35112302     0.12200
H1208       H  0.60921462  0.88508589  0.31750128     0.16800
H1209       H  0.68995348  0.80769365  0.30979865     0.02500
H1210       H  0.61052986  0.81468470  0.39347957     0.17100
H1211       H  0.68652562  0.88506821  0.39084383     0.16900
C1212       C  0.62881472  0.86196220  0.13843419     0.88600
C1213       C  0.66855072  0.86710194  0.13143557    -0.51600
C1214       C  0.68968311  0.84714361  0.15168357     0.11600
C1215       C  0.66936085  0.82397541  0.17690266     0.22500
C1216       C  0.62231186  0.82456428  0.13256621    -0.52300
C1217       C  0.64366280  0.80476320  0.15282716     0.11700
C1218       C  0.62418391  0.86738876  0.17848008    -0.51800
C1219       C  0.64550687  0.84739000  0.19851213     0.12200
H1220       H  0.67897895  0.88489664  0.11239084     0.16800
H1221       H  0.68670395  0.80774353  0.19335334     0.02500
H1222       H  0.60274971  0.81470239  0.11419316     0.17100
H1223       H  0.60584463  0.88531299  0.18988617     0.16900
C1224       C  0.62879967  0.64570529  0.13840746     0.88600
C1225       C  0.62416176  0.64024131  0.17844298    -0.51600
C1226       C  0.64549301  0.66020088  0.19850105     0.11600
C1227       C  0.66935688  0.68362460  0.17692513     0.22500
C1228       C  0.62231513  0.68310880  0.13258008    -0.52300
C1229       C  0.64366958  0.70287718  0.15286152     0.11700
C1230       C  0.66853384  0.64053872  0.13140727    -0.51800
C1231       C  0.68967220  0.66045933  0.15168676     0.12200
H1232       H  0.60581484  0.62231635  0.18982442     0.16800
H1233       H  0.68670452  0.69982865  0.19339809     0.02500
H1234       H  0.60276679  0.69299921  0.11421181     0.17100
H1235       H  0.67895588  0.62275153  0.11234467     0.16900
C1236       C  0.86426476  0.64568603  0.36150902     0.88600
C1237       C  0.86909418  0.64032517  0.32147618    -0.51600
C1238       C  0.84773205  0.66022509  0.30137409     0.11600
C1239       C  0.82366012  0.68350567  0.32291473     0.22500
C1240       C  0.87051650  0.68310535  0.36745334    -0.52300
C1241       C  0.84914178  0.70281868  0.34712970     0.11700
C1242       C  0.82452763  0.64033699  0.36834109    -0.51800
C1243       C  0.80336798  0.66022348  0.34803551     0.12200
H1244       H  0.88757844  0.62249849  0.31012927     0.16800
H1245       H  0.80629340  0.69967236  0.30641552     0.02500
H1246       H  0.88994128  0.69304806  0.38591995     0.17100
H1247       H  0.81412404  0.62252443  0.38737872     0.16900
C1248       C  0.85812255  0.64573085  0.13216030     0.88600
C1249       C  0.81807440  0.64026745  0.12750742    -0.51600
C1250       C  0.79800360  0.66018805  0.14887520     0.11600
C1251       C  0.81958107  0.68356945  0.17279283     0.22500
C1252       C  0.86392677  0.68314820  0.12576584    -0.52300
C1253       C  0.84363239  0.70287141  0.14715542     0.11700
C1254       C  0.86513560  0.64050188  0.17187934    -0.51800
C1255       C  0.84484791  0.66038513  0.19305745     0.12200
H1256       H  0.80669505  0.62239226  0.10910226     0.16800
H1257       H  0.80310109  0.69974304  0.19016770     0.02500
H1258       H  0.88228382  0.69308262  0.10623890     0.17100
H1259       H  0.88423591  0.62272598  0.18225983     0.16900
C1260       C  0.85813083  0.86191503  0.13213879     0.88600
C1261       C  0.86514822  0.86710100  0.17186551    -0.51600
C1262       C  0.84488191  0.84718820  0.19302317     0.11600
C1263       C  0.81961818  0.82403039  0.17273548     0.22500
C1264       C  0.86395216  0.82449657  0.12569892    -0.52300
C1265       C  0.84366832  0.80475424  0.14707865     0.11700
C1266       C  0.81807499  0.86737193  0.12750070    -0.51800
C1267       C  0.79802069  0.84742179  0.14884559     0.12200
H1268       H  0.88424745  0.88486202  0.18226571     0.16800
H1269       H  0.80315179  0.80783777  0.19009595     0.02500
H1270       H  0.88231582  0.81457839  0.10616002     0.17100
H1271       H  0.80667905  0.88525740  0.10911553     0.16900
C1272       C  0.86436146  0.86185495  0.36147519     0.88600
C1273       C  0.82461551  0.86717954  0.36831440    -0.51600
C1274       C  0.80346902  0.84726417  0.34802939     0.11600
C1275       C  0.82377799  0.82399006  0.32290922     0.22500
C1276       C  0.87064786  0.82443276  0.36743464    -0.52300
C1277       C  0.84927347  0.80470104  0.34712424     0.11700
C1278       C  0.86917147  0.86718951  0.32143476    -0.51800
C1279       C  0.84782615  0.84726349  0.30134831     0.12200
H1280       H  0.81419757  0.88499077  0.38734987     0.16800
H1281       H  0.80642033  0.80780644  0.30642411     0.02500
H1282       H  0.89007709  0.81450472  0.38591255     0.17100
H1283       H  0.88763289  0.88501876  0.31007094     0.16900
C1284       C  0.84685280  0.84794392  0.23118260    -0.11100
C1285       C  0.84773759  0.84799956  0.26313686    -0.12700
C1286       C  0.84461947  0.73878134  0.14589340    -0.11100
C1287       C  0.84465290  0.76884333  0.14584256    -0.12700
C1288       C  0.84678366  0.65955604  0.23121409    -0.11100
C1289       C  0.84765380  0.65946801  0.26316670    -0.12700
C1290       C  0.85030884  0.73872831  0.34820497    -0.11100
C1291       C  0.85037798  0.76878985  0.34822385    -0.12700
C1292       C  0.75979199  0.65946084  0.14899259    -0.11100
C1293       C  0.72783483  0.65960747  0.14983100    -0.12700
C1294       C  0.64234893  0.76885250  0.15180580    -0.11100
C1295       C  0.64236484  0.73878843  0.15183299    -0.12700
C1296       C  0.72784743  0.84796111  0.14980816    -0.11100
C1297       C  0.75980559  0.84811471  0.14895789    -0.12700
C1298       C  0.64569021  0.84813218  0.23671218    -0.11100
C1299       C  0.64656690  0.84804787  0.26866000    -0.12700
C1300       C  0.73335011  0.84798160  0.35092246    -0.11100
C1301       C  0.76530602  0.84799445  0.34998246    -0.12700
C1302       C  0.64653487  0.65947856  0.26864227    -0.11100
C1303       C  0.64567625  0.65940757  0.23669617    -0.12700
C1304       C  0.73325699  0.65944932  0.35090736    -0.11100
C1305       C  0.76520977  0.65944344  0.34996360    -0.12700
C1306       C  0.64810702  0.76882235  0.35387548    -0.11100
C1307       C  0.64811505  0.73875954  0.35385052    -0.12700
C1308       C  0.59600249  0.60499255  0.40811482    -0.11100
C1309       C  0.61326243  0.62401522  0.39034877    -0.12700
C1310       C  0.60613271  0.88368748  0.11676825    -0.11100
C1311       C  0.58842521  0.90274883  0.09947358    -0.12700
C1312       C  0.89713710  0.60511487  0.09161870    -0.11100
C1313       C  0.87983028  0.62410895  0.10940004    -0.12700
C1314       C  0.58835976  0.60500083  0.09942895    -0.11100
C1315       C  0.60609781  0.62402990  0.11672197    -0.12700
C1316       C  0.88708577  0.88351799  0.38318886    -0.11100
C1317       C  0.90483138  0.90256089  0.40047865    -0.12700
C1318       C  0.88701221  0.62407708  0.38323892    -0.11100
C1319       C  0.90480175  0.60508737  0.40053948    -0.12700
C1320       C  0.61340585  0.88366708  0.39036135    -0.11100
C1321       C  0.59615025  0.90273163  0.40810070    -0.12700
C1322       C  0.89713499  0.90261243  0.09167630    -0.11100
C1323       C  0.87982861  0.88358256  0.10941370    -0.12700
C1324       C  0.91685111  0.92680675  0.57164591     0.44600
N1325       N  0.95197708  0.96738162  0.56073942     0.03500
C1326       C  0.95785038  0.56508403  0.90939597    -0.04400
H1327       H  0.97483309  0.93710826  0.88698949     0.09000
C1328       C  0.58727195  0.94273735  0.96113064    -0.04700
Co1329     Co  0.93178567  0.00383488  0.99455953     0.74200
N1330       N  0.96249050  0.96745682  0.93270223    -0.23900
Co1331     Co  0.50192705  0.00383752  0.93514243     0.74100
C1332       C  0.57644483  0.92692469  0.92812917     0.44700
N1333       N  0.55743399  0.96741607  0.54453980     0.03100
N1334       N  0.54121306  0.96739950  0.93909828     0.03200
N1335       N  0.91227758  0.56403639  0.94847314    -0.44700
H1336       H  0.88364539  0.93712105  0.52167078     0.09000
N1337       N  0.93575039  0.96735867  0.95530749     0.03500
N1338       N  0.54117213  0.54029214  0.93910618     0.03300
C1339       C  0.57631318  0.58082197  0.92816005     0.44900
N1340       N  0.53069147  0.96751653  0.56714353    -0.23400
C1341       C  0.90601683  0.56509652  0.53859742    -0.04300
N1342       N  0.94511930  0.94365314  0.58420422    -0.44500
N1343       N  0.54804781  0.56398071  0.91560994    -0.44700
C1344       C  0.91686692  0.58093904  0.57157828     0.44600
N1345       N  0.93574082  0.54029491  0.95531521     0.03500
N1346       N  0.53064861  0.54023087  0.56711984    -0.23400
N1347       N  0.92936375  0.96747054  0.53400241    -0.23900
N1348       N  0.55739940  0.54031561  0.54452858     0.03100
H1349       H  0.51833163  0.57053567  0.61287130     0.09000
H1350       H  0.60951610  0.57055796  0.97814876     0.09100
N1351       N  0.96249135  0.54021997  0.93272562    -0.23900
N1352       N  0.56383369  0.96750657  0.96583070    -0.23500
N1353       N  0.95196340  0.54032327  0.56071542     0.03500
C1354       C  0.92485557  0.92677764  0.92018038     0.44900
C1355       C  0.53539096  0.94274579  0.59056688    -0.04800
N1356       N  0.56377816  0.54022306  0.96584877    -0.23500
H1357       H  0.60965254  0.93725550  0.97809877     0.09100
N1358       N  0.91229193  0.94362145  0.94844405    -0.44800
H1359       H  0.51841468  0.93726048  0.61293244     0.09000
C1360       C  0.56833170  0.58082920  0.57970628     0.44700
C1361       C  0.90599537  0.94264249  0.53866324    -0.04300
Co1362     Co  0.99122663  0.50385946  0.56469275     0.73800
N1363       N  0.58094383  0.94373380  0.55145630    -0.44500
C1364       C  0.92485657  0.58091293  0.92024878     0.45000
N1365       N  0.94511087  0.56407095  0.58416233    -0.44500
Co1366     Co  0.56137458  0.50386189  0.50527624     0.73900
C1367       C  0.58715766  0.56503540  0.96116822    -0.04800
C1368       C  0.95783674  0.94262584  0.90933208    -0.04300
N1369       N  0.92936296  0.54023496  0.53396968    -0.23900
N1370       N  0.54812866  0.94371701  0.91559822    -0.44600
H1371       H  0.97485916  0.57063176  0.88707361     0.09000
C1372       C  0.53531937  0.56503121  0.59051652    -0.04800
Cl1373     Cl  0.49658066  0.50382279  0.49991671    -0.47800
C1374       C  0.56840330  0.92693787  0.57975432     0.44800
H1375       H  0.88368119  0.57063328  0.52158867     0.09000
N1376       N  0.58089463  0.56400454  0.55143513    -0.44500
C1377       C  0.63494039  0.64568261  0.86764754     0.88600
C1378       C  0.67498690  0.64034079  0.87244121    -0.51600
C1379       C  0.69505165  0.66028468  0.85111002     0.11600
C1380       C  0.67346814  0.68359617  0.82711385     0.22200
C1381       C  0.62895547  0.68308541  0.87398336    -0.52300
C1382       C  0.64924357  0.70285021  0.85264180     0.11700
C1383       C  0.62808401  0.64038600  0.82791386    -0.51800
C1384       C  0.64836382  0.66031685  0.80679211     0.12200
H1385       H  0.68637032  0.62246424  0.89084679     0.16800
H1386       H  0.68994424  0.69979830  0.80977425     0.02500
H1387       H  0.61048439  0.69297810  0.89342959     0.17100
H1388       H  0.60908823  0.62254183  0.81748401     0.16900
C1389       C  0.63504949  0.86193443  0.86766967     0.88600
C1390       C  0.62818988  0.86721810  0.82793375    -0.51600
C1391       C  0.64842699  0.84723833  0.80681273     0.11600
C1392       C  0.67350832  0.82393235  0.82713750     0.22500
C1393       C  0.62901091  0.82453948  0.87402173    -0.52300
C1394       C  0.64926528  0.80473090  0.85267732     0.11700
C1395       C  0.67510827  0.86720480  0.87244785    -0.51800
C1396       C  0.69513811  0.84721270  0.85112300     0.12200
H1397       H  0.60921481  0.88508578  0.81750130     0.16800
H1398       H  0.68995333  0.80769370  0.80979866     0.02500
H1399       H  0.61052984  0.81468458  0.89347997     0.17100
H1400       H  0.68652570  0.88506817  0.89084364     0.16900
C1401       C  0.62881465  0.86196218  0.63843422     0.88600
C1402       C  0.66855060  0.86710189  0.63143563    -0.51600
C1403       C  0.68968305  0.84714358  0.65168351     0.11600
C1404       C  0.66936080  0.82397535  0.67690260     0.22500
C1405       C  0.62231170  0.82456425  0.63256617    -0.52300
C1406       C  0.64366273  0.80476319  0.65282711     0.11700
C1407       C  0.62418384  0.86738871  0.67848012    -0.51800
C1408       C  0.64550685  0.84738994  0.69851212     0.12200
H1409       H  0.67897896  0.88489693  0.61239066     0.16800
H1410       H  0.68670389  0.80774348  0.69335321     0.02500
H1411       H  0.60274978  0.81470251  0.61419340     0.17100
H1412       H  0.60584460  0.88531295  0.68988622     0.16900
C1413       C  0.62879972  0.64570530  0.63840742     0.88600
C1414       C  0.62416171  0.64024125  0.67844293    -0.51600
C1415       C  0.64549295  0.66020086  0.69850105     0.11600
C1416       C  0.66935680  0.68362452  0.67692512     0.22500
C1417       C  0.62231520  0.68310881  0.63258000    -0.52300
C1418       C  0.64366955  0.70287719  0.65286158     0.11700
C1419       C  0.66853384  0.64053869  0.63140723    -0.51800
C1420       C  0.68967217  0.66045929  0.65168678     0.12200
H1421       H  0.60581492  0.62231640  0.68982421     0.16800
H1422       H  0.68670468  0.69982879  0.69339834     0.02500
H1423       H  0.60276699  0.69299921  0.61421165     0.17100
H1424       H  0.67895588  0.62275160  0.61234463     0.16900
C1425       C  0.86426476  0.64568600  0.86150902     0.88600
C1426       C  0.86909425  0.64032507  0.82147612    -0.51600
C1427       C  0.84773200  0.66022505  0.80137407     0.11600
C1428       C  0.82366015  0.68350564  0.82291474     0.22500
C1429       C  0.87051661  0.68310531  0.86745327    -0.52300
C1430       C  0.84914189  0.70281867  0.84712964     0.11700
C1431       C  0.82452759  0.64033693  0.86834120    -0.51800
C1432       C  0.80336800  0.66022348  0.84803552     0.12200
H1433       H  0.88757812  0.62249886  0.81012949     0.16800
H1434       H  0.80629340  0.69967235  0.80641555     0.02500
H1435       H  0.88994150  0.69304801  0.88591980     0.17100
H1436       H  0.81412418  0.62252474  0.88737842     0.16900
C1437       C  0.85812251  0.64573086  0.63216033     0.88600
C1438       C  0.81807432  0.64026750  0.62750749    -0.51600
C1439       C  0.79800356  0.66018816  0.64887525     0.11600
C1440       C  0.81958111  0.68356955  0.67279282     0.22500
C1441       C  0.86392679  0.68314821  0.62576580    -0.52300
C1442       C  0.84363238  0.70287146  0.64715538     0.11700
C1443       C  0.86513547  0.64050199  0.67187928    -0.51800
C1444       C  0.84484797  0.66038523  0.69305743     0.12200
H1445       H  0.80669498  0.62239237  0.60910247     0.16800
H1446       H  0.80310118  0.69974326  0.69016779     0.02500
H1447       H  0.88228381  0.69308253  0.60623900     0.17100
H1448       H  0.88423619  0.62272560  0.68226001     0.16900
C1449       C  0.85813091  0.86191503  0.63213878     0.88600
C1450       C  0.86514811  0.86710090  0.67186545    -0.51600
C1451       C  0.84488190  0.84718823  0.69302315     0.11600
C1452       C  0.81961810  0.82403032  0.67273553     0.22500
C1453       C  0.86395232  0.82449655  0.62569895    -0.52300
C1454       C  0.84366838  0.80475427  0.64707863     0.11700
C1455       C  0.81807504  0.86737188  0.62750063    -0.51800
C1456       C  0.79802071  0.84742180  0.64884555     0.12200
H1457       H  0.88424792  0.88486245  0.68226594     0.16800
H1458       H  0.80315214  0.80783808  0.69009556     0.02500
H1459       H  0.88231596  0.81457841  0.60616023     0.17100
H1460       H  0.80667916  0.88525726  0.60911543     0.16900
C1461       C  0.86436141  0.86185497  0.86147522     0.88600
C1462       C  0.82461550  0.86717948  0.86831434    -0.51600
C1463       C  0.80346897  0.84726417  0.84802941     0.11600
C1464       C  0.82377798  0.82399015  0.82290920     0.22500
C1465       C  0.87064780  0.82443276  0.86743464    -0.52300
C1466       C  0.84927343  0.80470107  0.84712417     0.11700
C1467       C  0.86917139  0.86718950  0.82143484    -0.51800
C1468       C  0.84782613  0.84726360  0.80134830     0.12200
H1469       H  0.81419733  0.88499106  0.88735022     0.16800
H1470       H  0.80642017  0.80780645  0.80642388     0.02500
H1471       H  0.89007696  0.81450472  0.88591250     0.17100
H1472       H  0.88763324  0.88501919  0.81007078     0.16900
C1473       C  0.84685273  0.84794396  0.73118259    -0.11100
C1474       C  0.84773753  0.84799972  0.76313685    -0.12700
C1475       C  0.84461945  0.73878139  0.64589338    -0.11100
C1476       C  0.84465286  0.76884337  0.64584250    -0.12700
C1477       C  0.84678374  0.65955608  0.73121406    -0.11100
C1478       C  0.84765377  0.65946798  0.76316667    -0.12700
C1479       C  0.85030903  0.73872833  0.84820485    -0.11100
C1480       C  0.85037810  0.76878987  0.84822370    -0.12700
C1481       C  0.75979194  0.65946091  0.64899256    -0.11100
C1482       C  0.72783478  0.65960745  0.64983093    -0.12700
C1483       C  0.64234885  0.76885251  0.65180575    -0.11100
C1484       C  0.64236476  0.73878843  0.65183307    -0.12700
C1485       C  0.72784738  0.84796107  0.64980805    -0.11100
C1486       C  0.75980556  0.84811468  0.64895779    -0.12700
C1487       C  0.64569035  0.84813215  0.73671218    -0.11100
C1488       C  0.64656703  0.84804786  0.76865998    -0.12700
C1489       C  0.73335007  0.84798154  0.85092242    -0.11100
C1490       C  0.76530597  0.84799440  0.84998253    -0.12700
C1491       C  0.64653480  0.65947853  0.76864226    -0.11100
C1492       C  0.64567615  0.65940752  0.73669615    -0.12700
C1493       C  0.73325702  0.65944930  0.85090721    -0.11100
C1494       C  0.76520981  0.65944339  0.84996351    -0.12700
C1495       C  0.64810713  0.76882233  0.85387540    -0.11100
C1496       C  0.64811515  0.73875952  0.85385048    -0.12700
C1497       C  0.59600252  0.60499252  0.90811480    -0.11100
C1498       C  0.61326256  0.62401518  0.89034881    -0.12700
C1499       C  0.60613271  0.88368746  0.61676827    -0.11100
C1500       C  0.58842531  0.90274894  0.59947370    -0.12700
C1501       C  0.89713703  0.60511485  0.59161871    -0.11100
C1502       C  0.87983019  0.62410889  0.60940009    -0.12700
C1503       C  0.58835991  0.60500085  0.59942889    -0.11100
C1504       C  0.60609789  0.62402993  0.61672192    -0.12700
C1505       C  0.88708571  0.88351797  0.88318898    -0.11100
C1506       C  0.90483132  0.90256087  0.90047875    -0.12700
C1507       C  0.88701220  0.62407704  0.88323891    -0.11100
C1508       C  0.90480183  0.60508739  0.90053948    -0.12700
C1509       C  0.61340588  0.88366705  0.89036136    -0.11100
C1510       C  0.59615020  0.90273160  0.90810066    -0.12700
C1511       C  0.89713507  0.90261250  0.59167631    -0.11100
C1512       C  0.87982869  0.88358262  0.60941370    -0.12700
loop_ 
_geom_bond_atom_site_label_1 
_geom_bond_atom_site_label_2 
_geom_bond_distance 
_geom_bond_site_symmetry_2 
_ccdc_geom_bond_type 
C1           N19   1.348       .  A
C1           C38   1.456       .  S
C1          C188   1.437       .  S
N2           N19   1.325       .  A
N2           N24   1.321       .  A
N2         Co417   2.087       .  S
C3           N28   1.342       .  A
C3           C41   1.456       .  S
C3           H48   1.082       .  S
H4           C45   1.082       .  S
C5           N29   1.341       .  A
C5            C9   1.455       .  S
C5           H34   1.082       .  S
Co6          N14   2.087       .  S
Co6         N213   2.086       .  S
Co6         N613   2.086       .  S
Co6         N400   2.086       .  S
Co6       Cl1373   2.452       .  S
N7           C45   1.342       .  A
N7           N14   1.321       .  A
N7         Co764   2.086       .  S
Co8          N11   2.086       .  S
Co8         N763   2.086   1_455  S
Co8        N1162   2.085   1_455  S
Co8         N393   2.086       .  S
Co8        Cl617   2.452   1_455  S
C9           N47   1.348       .  A
C9          C187   1.437       .  S
N10          N17   1.321       .  A
N10          N40   1.325       .  A
N10        Co421   2.086       .  S
N11          N29   1.321       .  A
N11          N47   1.325       .  A
N12          C41   1.348       .  A
N12          N22   1.325       .  A
H13          C38   1.082       .  S
N14          N35   1.325       .  A
N15          N33   1.321       .  A
N15          N20   1.325       .  A
N15        Co386   2.086       .  S
C16          N20   1.348       .  A
C16          C44   1.455       .  S
C16         C174   1.436       .  S
N17          C32   1.341       .  A
N17       Co1173   2.085   1_455  S
C18          N46   1.342       .  A
C18          C21   1.456       .  S
C18          H52   1.082       .  S
C21          N42   1.348       .  A
C21         C178   1.437       .  S
N22          N28   1.321       .  A
N22        Co384   2.086       .  S
N23          C49   1.341       .  A
N23          N25   1.321       .  A
N23        Co795   2.085   1_455  S
N24          C38   1.342       .  A
N24        Co195   2.086   1_554  S
N25          N53   1.325       .  A
N25         Co43   2.086       .  S
H26          C49   1.082       .  S
H27          C44   1.082       .  S
N28       Co1142   2.085       .  S
N29        Co610   2.085       .  S
N30          N42   1.325       .  A
N30          N46   1.321       .  A
N30         Co39   2.086       .  S
C31          N35   1.348       .  A
C31          C45   1.456       .  S
C31         C183   1.437       .  S
C32          C51   1.455       .  S
C32          H36   1.082       .  S
N33          C44   1.341       .  A
N33        Co232   2.085       .  S
C37          N53   1.348       .  A
C37          C49   1.455       .  S
C37         C180   1.437       .  S
Co39        N380   2.087   1_545  S
Co39       N1151   2.085   1_545  S
Co39        N779   2.085       .  S
Co39       Cl806   2.452   1_554  S
N40          C51   1.348       .  A
C41         C185   1.437       .  S
Co43        N388   2.086   1_545  S
Co43        N596   2.085   1_544  S
Co43        N222   2.085   1_554  S
Co43        Cl50   2.452   1_454  S
N46        Co573   2.086   1_554  S
Cl50      Co1329   2.452       .  S
Cl50       Co575   2.452   1_655  S
Cl50       Co795   2.452   1_556  S
C51         C177   1.437       .  S
C54          C55   1.536       .  S
C54          C60   1.536       .  S
C54          C58   1.536       .  S
C54         C175   1.469       .  S
C55          H62   1.086       .  S
C55          C56   1.364       .  D
C56          C57   1.535       .  S
C56         C170   1.441       .  S
C57          C61   1.535       .  S
C57          C59   1.536       .  S
C57          H63   1.112       .  S
C58          H64   1.087       .  S
C58          C59   1.365       .  D
C59         C173   1.442       .  S
C60          H65   1.086       .  S
C60          C61   1.364       .  D
C61         C168   1.441       .  S
C66          C67   1.536       .  S
C66          C72   1.536       .  S
C66          C70   1.536       .  S
C66         C186   1.469       .  S
C67          H74   1.086       .  S
C67          C68   1.364       .  D
C68          C69   1.535       .  S
C68         C165   1.441       .  S
C69          C73   1.535       .  S
C69          C71   1.535       .  S
C69          H75   1.112       .  S
C70          H76   1.087       .  S
C70          C71   1.365       .  D
C71         C172   1.442       .  S
C72          H77   1.086       .  S
C72          C73   1.364       .  D
C73         C166   1.441       .  S
C78          C79   1.536       .  S
C78          C84   1.536       .  S
C78          C82   1.536       .  S
C78         C176   1.469       .  S
C79          H86   1.086       .  S
C79          C80   1.363       .  D
C80          C81   1.535       .  S
C80         C162   1.441       .  S
C81          C85   1.535       .  S
C81          C83   1.535       .  S
C81          H87   1.112       .  S
C82          H88   1.087       .  S
C82          C83   1.365       .  D
C83         C160   1.442       .  S
C84          H89   1.086       .  S
C84          C85   1.364       .  D
C85         C164   1.441       .  S
C90          C91   1.536       .  S
C90          C96   1.536       .  S
C90          C94   1.536       .  S
C90         C181   1.469       .  S
C91          H98   1.086       .  S
C91          C92   1.364       .  D
C92          C93   1.535       .  S
C92         C169   1.441       .  S
C93          C97   1.535       .  S
C93          C95   1.536       .  S
C93          H99   1.112       .  S
C94         H100   1.087       .  S
C94          C95   1.365       .  D
C95         C161   1.442       .  S
C96         H101   1.086       .  S
C96          C97   1.363       .  D
C97         C159   1.441       .  S
C102        C103   1.536       .  S
C102        C108   1.536       .  S
C102        C106   1.536       .  S
C102        C184   1.469       .  S
C103        H110   1.086       .  S
C103        C104   1.364       .  D
C104        C105   1.535       .  S
C104        C155   1.442       .  S
C105        C109   1.535       .  S
C105        C107   1.535       .  S
C105        H111   1.112       .  S
C106        H112   1.087       .  S
C106        C107   1.365       .  D
C107        C156   1.442       .  S
C108        H113   1.086       .  S
C108        C109   1.364       .  D
C109        C171   1.441       .  S
C114        C115   1.536       .  S
C114        C120   1.536       .  S
C114        C118   1.536       .  S
C114        C179   1.469       .  S
C115        H122   1.086       .  S
C115        C116   1.364       .  D
C116        C117   1.535       .  S
C116        C158   1.441       .  S
C117        C121   1.535       .  S
C117        C119   1.536       .  S
C117        H123   1.112       .  S
C118        H124   1.087       .  S
C118        C119   1.365       .  D
C119        C152   1.442       .  S
C120        H125   1.086       .  S
C120        C121   1.364       .  D
C121        C154   1.441       .  S
C126        C127   1.536       .  S
C126        C132   1.536       .  S
C126        C130   1.536       .  S
C126        C189   1.470       .  S
C127        H134   1.086       .  S
C127        C128   1.364       .  D
C128        C129   1.535       .  S
C128        C150   1.442       .  S
C129        C133   1.535       .  S
C129        C131   1.535       .  S
C129        H135   1.112       .  S
C130        H136   1.087       .  S
C130        C131   1.365       .  D
C131        C153   1.442       .  S
C132        H137   1.086       .  S
C132        C133   1.364       .  D
C133        C163   1.441       .  S
C138        C139   1.536       .  S
C138        C144   1.536       .  S
C138        C142   1.536       .  S
C138        C182   1.470       .  S
C139        H146   1.086       .  S
C139        C140   1.364       .  D
C140        C141   1.535       .  S
C140        C167   1.441       .  S
C141        C145   1.535       .  S
C141        C143   1.535       .  S
C141        H147   1.112       .  S
C142        H148   1.087       .  S
C142        C143   1.365       .  D
C143        C157   1.442       .  S
C144        H149   1.086       .  S
C144        C145   1.364       .  D
C145        C151   1.442       .  S
C150        C151   1.206       .  T
C152        C153   1.206       .  T
C154        C155   1.206       .  T
C156        C157   1.206       .  T
C158        C159   1.206       .  T
C160        C161   1.206       .  T
C162        C163   1.206       .  T
C164        C165   1.206       .  T
C166        C167   1.206       .  T
C168        C169   1.205       .  T
C170        C171   1.206       .  T
C172        C173   1.206       .  T
C174        C175   1.206       .  T
C176        C177   1.207       .  T
C178        C179   1.207       .  T
C180        C181   1.206       .  T
C182        C183   1.207       .  T
C184        C185   1.207       .  T
C186        C187   1.207       .  T
C188        C189   1.207       .  T
C190        N208   1.348       .  A
C190        C227   1.456       .  S
C190        C377   1.437       .  S
N191        N208   1.325       .  A
N191        N213   1.321       .  A
N191       Co606   2.087       .  S
C192        N217   1.342       .  A
C192        C230   1.456       .  S
C192        H237   1.082       .  S
H193        C234   1.082       .  S
C194        N218   1.341       .  A
C194        C198   1.455       .  S
C194        H223   1.082       .  S
Co195       N203   2.087       .  S
Co195       N424   2.086   1_556  S
Co195       N589   2.086       .  S
Co195     Cl1184   2.452       .  S
N196        C234   1.342       .  A
N196        N203   1.321       .  A
N196       Co953   2.086       .  S
Co197       N952   2.086   1_455  S
Co197       N200   2.086       .  S
Co197      N1351   2.085   1_455  S
Co197       N582   2.086       .  S
Co197      Cl428   2.452   1_455  S
C198        N236   1.348       .  A
C198        C376   1.437       .  S
N199        N206   1.321       .  A
N199        N229   1.325       .  A
N199       Co610   2.086       .  S
N200        N218   1.321       .  A
N200        N236   1.325       .  A
N201        C230   1.348       .  A
N201        N211   1.325       .  A
H202        C227   1.082       .  S
N203        N224   1.325       .  A
N204        N222   1.321       .  A
N204        N209   1.325       .  A
N204       Co575   2.086       .  S
C205        N209   1.348       .  A
C205        C233   1.455       .  S
C205        C363   1.436       .  S
N206        C221   1.341       .  A
N206      Co1362   2.085   1_455  S
C207        N235   1.342       .  A
C207        C210   1.456       .  S
C207        H241   1.082       .  S
C210        N231   1.348       .  A
C210        C367   1.437       .  S
N211        N217   1.321       .  A
N211       Co573   2.086       .  S
N212        C238   1.341       .  A
N212        N214   1.321       .  A
N212       Co984   2.085   1_455  S
N213        C227   1.342       .  A
N214        N242   1.325       .  A
N214       Co232   2.086       .  S
H215        C238   1.082       .  S
H216        C233   1.082       .  S
N217      Co1331   2.085       .  S
N218       Co421   2.085   1_556  S
N219        N231   1.325       .  A
N219        N235   1.321       .  A
N219       Co228   2.086       .  S
C220        N224   1.348       .  A
C220        C234   1.456       .  S
C220        C372   1.437       .  S
C221        C240   1.455       .  S
C221        H225   1.082       .  S
N222        C233   1.341       .  A
C226        N242   1.348       .  A
C226        C238   1.455       .  S
C226        C369   1.437       .  S
Co228       N569   2.087   1_545  S
Co228      N1340   2.085   1_545  S
Co228       N968   2.085       .  S
Co228      Cl995   2.452       .  S
N229        C240   1.348       .  A
C230        C374   1.437       .  S
Co232       N577   2.086   1_545  S
Co232       N407   2.085   1_545  S
Co232      Cl239   2.452   1_455  S
N235       Co384   2.086       .  S
Cl239     Co1140   2.452       .  S
Cl239      Co386   2.452   1_655  S
Cl239      Co984   2.452       .  S
C240        C366   1.437       .  S
C243        C244   1.536       .  S
C243        C249   1.536       .  S
C243        C247   1.536       .  S
C243        C364   1.469       .  S
C244        H251   1.086       .  S
C244        C245   1.364       .  D
C245        C246   1.535       .  S
C245        C359   1.441       .  S
C246        C250   1.535       .  S
C246        C248   1.536       .  S
C246        H252   1.112       .  S
C247        H253   1.087       .  S
C247        C248   1.365       .  D
C248        C362   1.442       .  S
C249        H254   1.086       .  S
C249        C250   1.364       .  D
C250        C357   1.441       .  S
C255        C256   1.536       .  S
C255        C261   1.536       .  S
C255        C259   1.536       .  S
C255        C375   1.469       .  S
C256        H263   1.086       .  S
C256        C257   1.364       .  D
C257        C258   1.535       .  S
C257        C354   1.441       .  S
C258        C262   1.535       .  S
C258        C260   1.535       .  S
C258        H264   1.112       .  S
C259        H265   1.087       .  S
C259        C260   1.365       .  D
C260        C361   1.442       .  S
C261        H266   1.086       .  S
C261        C262   1.364       .  D
C262        C355   1.441       .  S
C267        C268   1.536       .  S
C267        C273   1.536       .  S
C267        C271   1.536       .  S
C267        C365   1.469       .  S
C268        H275   1.086       .  S
C268        C269   1.363       .  D
C269        C270   1.535       .  S
C269        C351   1.441       .  S
C270        C274   1.535       .  S
C270        C272   1.535       .  S
C270        H276   1.112       .  S
C271        H277   1.087       .  S
C271        C272   1.365       .  D
C272        C349   1.442       .  S
C273        H278   1.086       .  S
C273        C274   1.364       .  D
C274        C353   1.441       .  S
C279        C280   1.536       .  S
C279        C285   1.536       .  S
C279        C283   1.536       .  S
C279        C370   1.469       .  S
C280        H287   1.086       .  S
C280        C281   1.364       .  D
C281        C282   1.535       .  S
C281        C358   1.441       .  S
C282        C286   1.535       .  S
C282        C284   1.536       .  S
C282        H288   1.112       .  S
C283        H289   1.087       .  S
C283        C284   1.365       .  D
C284        C350   1.442       .  S
C285        H290   1.086       .  S
C285        C286   1.363       .  D
C286        C348   1.441       .  S
C291        C292   1.536       .  S
C291        C297   1.536       .  S
C291        C295   1.536       .  S
C291        C373   1.469       .  S
C292        H299   1.086       .  S
C292        C293   1.364       .  D
C293        C294   1.535       .  S
C293        C344   1.442       .  S
C294        C298   1.535       .  S
C294        C296   1.535       .  S
C294        H300   1.112       .  S
C295        H301   1.087       .  S
C295        C296   1.365       .  D
C296        C345   1.442       .  S
C297        H302   1.086       .  S
C297        C298   1.364       .  D
C298        C360   1.441       .  S
C303        C304   1.536       .  S
C303        C309   1.536       .  S
C303        C307   1.536       .  S
C303        C368   1.469       .  S
C304        H311   1.086       .  S
C304        C305   1.364       .  D
C305        C306   1.535       .  S
C305        C347   1.441       .  S
C306        C310   1.535       .  S
C306        C308   1.536       .  S
C306        H312   1.112       .  S
C307        H313   1.087       .  S
C307        C308   1.365       .  D
C308        C341   1.442       .  S
C309        H314   1.086       .  S
C309        C310   1.364       .  D
C310        C343   1.441       .  S
C315        C316   1.536       .  S
C315        C321   1.536       .  S
C315        C319   1.536       .  S
C315        C378   1.470       .  S
C316        H323   1.086       .  S
C316        C317   1.364       .  D
C317        C318   1.535       .  S
C317        C339   1.442       .  S
C318        C322   1.535       .  S
C318        C320   1.535       .  S
C318        H324   1.112       .  S
C319        H325   1.087       .  S
C319        C320   1.365       .  D
C320        C342   1.442       .  S
C321        H326   1.086       .  S
C321        C322   1.364       .  D
C322        C352   1.441       .  S
C327        C328   1.536       .  S
C327        C333   1.536       .  S
C327        C331   1.536       .  S
C327        C371   1.470       .  S
C328        H335   1.086       .  S
C328        C329   1.364       .  D
C329        C330   1.535       .  S
C329        C356   1.441       .  S
C330        C334   1.535       .  S
C330        C332   1.535       .  S
C330        H336   1.112       .  S
C331        H337   1.087       .  S
C331        C332   1.365       .  D
C332        C346   1.442       .  S
C333        H338   1.086       .  S
C333        C334   1.364       .  D
C334        C340   1.442       .  S
C339        C340   1.206       .  T
C341        C342   1.206       .  T
C343        C344   1.206       .  T
C345        C346   1.206       .  T
C347        C348   1.206       .  T
C349        C350   1.206       .  T
C351        C352   1.206       .  T
C353        C354   1.206       .  T
C355        C356   1.206       .  T
C357        C358   1.205       .  T
C359        C360   1.206       .  T
C361        C362   1.206       .  T
C363        C364   1.206       .  T
C365        C366   1.207       .  T
C367        C368   1.207       .  T
C369        C370   1.206       .  T
C371        C372   1.207       .  T
C373        C374   1.207       .  T
C375        C376   1.207       .  T
C377        C378   1.207       .  T
C379        N397   1.348       .  A
C379        C416   1.456       .  S
C379        C566   1.437       .  S
N380        N397   1.325       .  A
N380        N402   1.321       .  A
C381        N406   1.342       .  A
C381        C419   1.456       .  S
C381        H426   1.082       .  S
H382        C423   1.082       .  S
C383        N407   1.341       .  A
C383        C387   1.455       .  S
C383        H412   1.082       .  S
Co384       N591   2.086   1_545  S
Co384       N392   2.087   1_545  S
Co384      Cl995   2.452       .  S
N385        C423   1.342       .  A
N385        N392   1.321       .  A
N385      Co1142   2.086   1_565  S
Co386      N1141   2.086   1_445  S
Co386       N389   2.086   1_545  S
Co386       N784   2.085   1_455  S
C387        N425   1.348       .  A
C387        C565   1.437       .  S
N388        N395   1.321       .  A
N388        N418   1.325       .  A
N389        N407   1.321       .  A
N389        N425   1.325       .  A
N390        C419   1.348       .  A
N390        N400   1.325       .  A
H391        C416   1.082       .  S
N392        N413   1.325       .  A
N393        N411   1.321       .  A
N393        N398   1.325       .  A
C394        N398   1.348       .  A
C394        C422   1.455       .  S
C394        C552   1.436       .  S
N395        C410   1.341       .  A
N395       Co795   2.085   1_465  S
C396        N424   1.342       .  A
C396        C399   1.456       .  S
C396        H430   1.082       .  S
C399        N420   1.348       .  A
C399        C556   1.437       .  S
N400        N406   1.321       .  A
N401        C427   1.341       .  A
N401        N403   1.321       .  A
N401      Co1173   2.085   1_455  S
N402        C416   1.342       .  A
N402       Co573   2.086   1_564  S
N403        N431   1.325       .  A
N403       Co421   2.086       .  S
H404        C427   1.082       .  S
H405        C422   1.082       .  S
N406       Co764   2.085       .  S
N408        N420   1.325       .  A
N408        N424   1.321       .  A
N408       Co417   2.086       .  S
C409        N413   1.348       .  A
C409        C423   1.456       .  S
C409        C561   1.437       .  S
C410        C429   1.455       .  S
C410        H414   1.082       .  S
N411        C422   1.341       .  A
N411       Co610   2.085       .  S
C415        N431   1.348       .  A
C415        C427   1.455       .  S
C415        C558   1.437       .  S
Co417       N773   2.085       .  S
Co417      N1157   2.085       .  S
Co417     Cl1184   2.452   1_554  S
N418        C429   1.348       .  A
C419        C563   1.437       .  S
Co421       N600   2.085   1_554  S
Co421      Cl428   2.452   1_454  S
Cl428      Co951   2.452       .  S
Cl428     Co1173   2.452   1_556  S
C429        C555   1.437       .  S
C432        C433   1.536       .  S
C432        C438   1.536       .  S
C432        C436   1.536       .  S
C432        C553   1.469       .  S
C433        H440   1.086       .  S
C433        C434   1.364       .  D
C434        C435   1.535       .  S
C434        C548   1.441       .  S
C435        C439   1.535       .  S
C435        C437   1.536       .  S
C435        H441   1.112       .  S
C436        H442   1.087       .  S
C436        C437   1.365       .  D
C437        C551   1.442       .  S
C438        H443   1.086       .  S
C438        C439   1.364       .  D
C439        C546   1.441       .  S
C444        C445   1.536       .  S
C444        C450   1.536       .  S
C444        C448   1.536       .  S
C444        C564   1.469       .  S
C445        H452   1.086       .  S
C445        C446   1.364       .  D
C446        C447   1.535       .  S
C446        C543   1.441       .  S
C447        C451   1.535       .  S
C447        C449   1.535       .  S
C447        H453   1.112       .  S
C448        H454   1.087       .  S
C448        C449   1.365       .  D
C449        C550   1.442       .  S
C450        H455   1.086       .  S
C450        C451   1.364       .  D
C451        C544   1.441       .  S
C456        C457   1.536       .  S
C456        C462   1.536       .  S
C456        C460   1.536       .  S
C456        C554   1.469       .  S
C457        H464   1.086       .  S
C457        C458   1.363       .  D
C458        C459   1.535       .  S
C458        C540   1.441       .  S
C459        C463   1.535       .  S
C459        C461   1.535       .  S
C459        H465   1.112       .  S
C460        H466   1.087       .  S
C460        C461   1.365       .  D
C461        C538   1.442       .  S
C462        H467   1.086       .  S
C462        C463   1.364       .  D
C463        C542   1.441       .  S
C468        C469   1.536       .  S
C468        C474   1.536       .  S
C468        C472   1.536       .  S
C468        C559   1.469       .  S
C469        H476   1.086       .  S
C469        C470   1.364       .  D
C470        C471   1.535       .  S
C470        C547   1.441       .  S
C471        C475   1.535       .  S
C471        C473   1.536       .  S
C471        H477   1.112       .  S
C472        H478   1.087       .  S
C472        C473   1.365       .  D
C473        C539   1.442       .  S
C474        H479   1.086       .  S
C474        C475   1.363       .  D
C475        C537   1.441       .  S
C480        C481   1.536       .  S
C480        C486   1.536       .  S
C480        C484   1.536       .  S
C480        C562   1.469       .  S
C481        H488   1.086       .  S
C481        C482   1.364       .  D
C482        C483   1.535       .  S
C482        C533   1.442       .  S
C483        C487   1.535       .  S
C483        C485   1.535       .  S
C483        H489   1.112       .  S
C484        H490   1.087       .  S
C484        C485   1.365       .  D
C485        C534   1.442       .  S
C486        H491   1.086       .  S
C486        C487   1.364       .  D
C487        C549   1.441       .  S
C492        C493   1.536       .  S
C492        C498   1.536       .  S
C492        C496   1.536       .  S
C492        C557   1.469       .  S
C493        H500   1.086       .  S
C493        C494   1.364       .  D
C494        C495   1.535       .  S
C494        C536   1.441       .  S
C495        C499   1.535       .  S
C495        C497   1.536       .  S
C495        H501   1.112       .  S
C496        H502   1.087       .  S
C496        C497   1.365       .  D
C497        C530   1.442       .  S
C498        H503   1.086       .  S
C498        C499   1.364       .  D
C499        C532   1.441       .  S
C504        C505   1.536       .  S
C504        C510   1.536       .  S
C504        C508   1.536       .  S
C504        C567   1.470       .  S
C505        H512   1.086       .  S
C505        C506   1.364       .  D
C506        C507   1.535       .  S
C506        C528   1.442       .  S
C507        C511   1.535       .  S
C507        C509   1.535       .  S
C507        H513   1.112       .  S
C508        H514   1.087       .  S
C508        C509   1.365       .  D
C509        C531   1.442       .  S
C510        H515   1.086       .  S
C510        C511   1.364       .  D
C511        C541   1.441       .  S
C516        C517   1.536       .  S
C516        C522   1.536       .  S
C516        C520   1.536       .  S
C516        C560   1.470       .  S
C517        H524   1.086       .  S
C517        C518   1.364       .  D
C518        C519   1.535       .  S
C518        C545   1.441       .  S
C519        C523   1.535       .  S
C519        C521   1.535       .  S
C519        H525   1.112       .  S
C520        H526   1.087       .  S
C520        C521   1.365       .  D
C521        C535   1.442       .  S
C522        H527   1.086       .  S
C522        C523   1.364       .  D
C523        C529   1.442       .  S
C528        C529   1.206       .  T
C530        C531   1.206       .  T
C532        C533   1.206       .  T
C534        C535   1.206       .  T
C536        C537   1.206       .  T
C538        C539   1.206       .  T
C540        C541   1.206       .  T
C542        C543   1.206       .  T
C544        C545   1.206       .  T
C546        C547   1.205       .  T
C548        C549   1.206       .  T
C550        C551   1.206       .  T
C552        C553   1.206       .  T
C554        C555   1.207       .  T
C556        C557   1.207       .  T
C558        C559   1.206       .  T
C560        C561   1.207       .  T
C562        C563   1.207       .  T
C564        C565   1.207       .  T
C566        C567   1.207       .  T
C568        N586   1.348       .  A
C568        C605   1.456       .  S
C568        C755   1.437       .  S
N569        N586   1.325       .  A
N569        N591   1.321       .  A
C570        N595   1.342       .  A
C570        C608   1.456       .  S
C570        H615   1.082       .  S
H571        C612   1.082       .  S
C572        N596   1.341       .  A
C572        C576   1.455       .  S
C572        H601   1.082       .  S
Co573       N581   2.087   1_545  S
Co573      Cl806   2.452       .  S
N574        C612   1.342       .  A
N574        N581   1.321       .  A
N574      Co1331   2.086   1_565  S
Co575      N1330   2.086   1_445  S
Co575       N578   2.086   1_545  S
Co575       N973   2.085   1_455  S
C576        N614   1.348       .  A
C576        C754   1.437       .  S
N577        N584   1.321       .  A
N577        N607   1.325       .  A
N578        N596   1.321       .  A
N578        N614   1.325       .  A
N579        C608   1.348       .  A
N579        N589   1.325       .  A
H580        C605   1.082       .  S
N581        N602   1.325       .  A
N582        N600   1.321       .  A
N582        N587   1.325       .  A
C583        N587   1.348       .  A
C583        C611   1.455       .  S
C583        C741   1.436       .  S
N584        C599   1.341       .  A
N584       Co984   2.085   1_465  S
C585        N613   1.342       .  A
C585        C588   1.456       .  S
C585        H619   1.082       .  S
C588        N609   1.348       .  A
C588        C745   1.437       .  S
N589        N595   1.321       .  A
N590        C616   1.341       .  A
N590        N592   1.321       .  A
N590      Co1362   2.085   1_455  S
N591        C605   1.342       .  A
N592        N620   1.325       .  A
N592       Co610   2.086       .  S
H593        C616   1.082       .  S
H594        C611   1.082       .  S
N595       Co953   2.085       .  S
N597        N609   1.325       .  A
N597        N613   1.321       .  A
N597       Co606   2.086       .  S
C598        N602   1.348       .  A
C598        C612   1.456       .  S
C598        C750   1.437       .  S
C599        C618   1.455       .  S
C599        H603   1.082       .  S
N600        C611   1.341       .  A
C604        N620   1.348       .  A
C604        C616   1.455       .  S
C604        C747   1.437       .  S
Co606       N962   2.085       .  S
Co606      N1346   2.085       .  S
Co606     Cl1373   2.452       .  S
N607        C618   1.348       .  A
C608        C752   1.437       .  S
Co610      Cl617   2.452   1_455  S
Cl617      Co762   2.452       .  S
Cl617     Co1362   2.452       .  S
C618        C744   1.437       .  S
C621        C622   1.536       .  S
C621        C627   1.536       .  S
C621        C625   1.536       .  S
C621        C742   1.469       .  S
C622        H629   1.086       .  S
C622        C623   1.364       .  D
C623        C624   1.535       .  S
C623        C737   1.441       .  S
C624        C628   1.535       .  S
C624        C626   1.536       .  S
C624        H630   1.112       .  S
C625        H631   1.087       .  S
C625        C626   1.365       .  D
C626        C740   1.442       .  S
C627        H632   1.086       .  S
C627        C628   1.364       .  D
C628        C735   1.441       .  S
C633        C634   1.536       .  S
C633        C639   1.536       .  S
C633        C637   1.536       .  S
C633        C753   1.469       .  S
C634        H641   1.086       .  S
C634        C635   1.364       .  D
C635        C636   1.535       .  S
C635        C732   1.441       .  S
C636        C640   1.535       .  S
C636        C638   1.535       .  S
C636        H642   1.112       .  S
C637        H643   1.087       .  S
C637        C638   1.365       .  D
C638        C739   1.442       .  S
C639        H644   1.086       .  S
C639        C640   1.364       .  D
C640        C733   1.441       .  S
C645        C646   1.536       .  S
C645        C651   1.536       .  S
C645        C649   1.536       .  S
C645        C743   1.469       .  S
C646        H653   1.086       .  S
C646        C647   1.363       .  D
C647        C648   1.535       .  S
C647        C729   1.441       .  S
C648        C652   1.535       .  S
C648        C650   1.535       .  S
C648        H654   1.112       .  S
C649        H655   1.087       .  S
C649        C650   1.365       .  D
C650        C727   1.442       .  S
C651        H656   1.086       .  S
C651        C652   1.364       .  D
C652        C731   1.441       .  S
C657        C658   1.536       .  S
C657        C663   1.536       .  S
C657        C661   1.536       .  S
C657        C748   1.469       .  S
C658        H665   1.086       .  S
C658        C659   1.364       .  D
C659        C660   1.535       .  S
C659        C736   1.441       .  S
C660        C664   1.535       .  S
C660        C662   1.536       .  S
C660        H666   1.112       .  S
C661        H667   1.087       .  S
C661        C662   1.365       .  D
C662        C728   1.442       .  S
C663        H668   1.086       .  S
C663        C664   1.363       .  D
C664        C726   1.441       .  S
C669        C670   1.536       .  S
C669        C675   1.536       .  S
C669        C673   1.536       .  S
C669        C751   1.469       .  S
C670        H677   1.086       .  S
C670        C671   1.364       .  D
C671        C672   1.535       .  S
C671        C722   1.442       .  S
C672        C676   1.535       .  S
C672        C674   1.535       .  S
C672        H678   1.112       .  S
C673        H679   1.087       .  S
C673        C674   1.365       .  D
C674        C723   1.442       .  S
C675        H680   1.086       .  S
C675        C676   1.364       .  D
C676        C738   1.441       .  S
C681        C682   1.536       .  S
C681        C687   1.536       .  S
C681        C685   1.536       .  S
C681        C746   1.469       .  S
C682        H689   1.086       .  S
C682        C683   1.364       .  D
C683        C684   1.535       .  S
C683        C725   1.441       .  S
C684        C688   1.535       .  S
C684        C686   1.536       .  S
C684        H690   1.112       .  S
C685        H691   1.087       .  S
C685        C686   1.365       .  D
C686        C719   1.442       .  S
C687        H692   1.086       .  S
C687        C688   1.364       .  D
C688        C721   1.441       .  S
C693        C694   1.536       .  S
C693        C699   1.536       .  S
C693        C697   1.536       .  S
C693        C756   1.470       .  S
C694        H701   1.086       .  S
C694        C695   1.364       .  D
C695        C696   1.535       .  S
C695        C717   1.442       .  S
C696        C700   1.535       .  S
C696        C698   1.535       .  S
C696        H702   1.112       .  S
C697        H703   1.087       .  S
C697        C698   1.365       .  D
C698        C720   1.442       .  S
C699        H704   1.086       .  S
C699        C700   1.364       .  D
C700        C730   1.441       .  S
C705        C706   1.536       .  S
C705        C711   1.536       .  S
C705        C709   1.536       .  S
C705        C749   1.470       .  S
C706        H713   1.086       .  S
C706        C707   1.364       .  D
C707        C708   1.535       .  S
C707        C734   1.441       .  S
C708        C712   1.535       .  S
C708        C710   1.535       .  S
C708        H714   1.112       .  S
C709        H715   1.087       .  S
C709        C710   1.365       .  D
C710        C724   1.442       .  S
C711        H716   1.086       .  S
C711        C712   1.364       .  D
C712        C718   1.442       .  S
C717        C718   1.206       .  T
C719        C720   1.206       .  T
C721        C722   1.206       .  T
C723        C724   1.206       .  T
C725        C726   1.206       .  T
C727        C728   1.206       .  T
C729        C730   1.206       .  T
C731        C732   1.206       .  T
C733        C734   1.206       .  T
C735        C736   1.205       .  T
C737        C738   1.206       .  T
C739        C740   1.206       .  T
C741        C742   1.206       .  T
C743        C744   1.207       .  T
C745        C746   1.207       .  T
C747        C748   1.206       .  T
C749        C750   1.207       .  T
C751        C752   1.207       .  T
C753        C754   1.207       .  T
C755        C756   1.207       .  T
C757        N775   1.348       .  A
C757        C794   1.456       .  S
C757        C944   1.437       .  S
N758        N775   1.325       .  A
N758        N780   1.321       .  A
N758      Co1173   2.087       .  S
C759        N784   1.342       .  A
C759        C797   1.456       .  S
C759        H804   1.082       .  S
H760        C801   1.082       .  S
C761        N785   1.341       .  A
C761        C765   1.455       .  S
C761        H790   1.082       .  S
Co762       N969   2.086       .  S
Co762       N770   2.087       .  S
Co762      N1369   2.086       .  S
Co762      N1156   2.086       .  S
N763        C801   1.342       .  A
N763        N770   1.321       .  A
Co764       N767   2.086       .  S
Co764      N1149   2.086       .  S
Co764     Cl1373   2.452       .  S
C765        N803   1.348       .  A
C765        C943   1.437       .  S
N766        N773   1.321       .  A
N766        N796   1.325       .  A
N766      Co1177   2.086       .  S
N767        N785   1.321       .  A
N767        N803   1.325       .  A
N768        C797   1.348       .  A
N768        N778   1.325       .  A
H769        C794   1.082       .  S
N770        N791   1.325       .  A
N771        N789   1.321       .  A
N771        N776   1.325       .  A
N771      Co1142   2.086       .  S
C772        N776   1.348       .  A
C772        C800   1.455       .  S
C772        C930   1.436       .  S
N773        C788   1.341       .  A
C774        N802   1.342       .  A
C774        C777   1.456       .  S
C774        H808   1.082       .  S
C777        N798   1.348       .  A
C777        C934   1.437       .  S
N778        N784   1.321       .  A
N778      Co1140   2.086       .  S
N779        C805   1.341       .  A
N779        N781   1.321       .  A
N780        C794   1.342       .  A
N780       Co951   2.086   1_554  S
N781        N809   1.325       .  A
N781       Co799   2.086       .  S
H782        C805   1.082       .  S
H783        C800   1.082       .  S
N785      Co1366   2.085       .  S
N786        N798   1.325       .  A
N786        N802   1.321       .  A
N786       Co795   2.086       .  S
C787        N791   1.348       .  A
C787        C801   1.456       .  S
C787        C939   1.437       .  S
C788        C807   1.455       .  S
C788        H792   1.082       .  S
N789        C800   1.341       .  A
N789       Co988   2.085       .  S
C793        N809   1.348       .  A
C793        C805   1.455       .  S
C793        C936   1.437       .  S
Co795      N1136   2.087   1_545  S
N796        C807   1.348       .  A
C797        C941   1.437       .  S
Co799      N1144   2.086   1_545  S
Co799      N1352   2.085   1_544  S
Co799       N978   2.085   1_554  S
Co799      Cl806   2.452   1_554  S
N802      Co1329   2.086   1_554  S
Cl806     Co1331   2.452       .  S
C807        C933   1.437       .  S
C810        C811   1.536       .  S
C810        C816   1.536       .  S
C810        C814   1.536       .  S
C810        C931   1.469       .  S
C811        H818   1.086       .  S
C811        C812   1.364       .  D
C812        C813   1.535       .  S
C812        C926   1.441       .  S
C813        C817   1.535       .  S
C813        C815   1.536       .  S
C813        H819   1.112       .  S
C814        H820   1.087       .  S
C814        C815   1.365       .  D
C815        C929   1.442       .  S
C816        H821   1.086       .  S
C816        C817   1.364       .  D
C817        C924   1.441       .  S
C822        C823   1.536       .  S
C822        C828   1.536       .  S
C822        C826   1.536       .  S
C822        C942   1.469       .  S
C823        H830   1.086       .  S
C823        C824   1.364       .  D
C824        C825   1.535       .  S
C824        C921   1.441       .  S
C825        C829   1.535       .  S
C825        C827   1.535       .  S
C825        H831   1.112       .  S
C826        H832   1.087       .  S
C826        C827   1.365       .  D
C827        C928   1.442       .  S
C828        H833   1.086       .  S
C828        C829   1.364       .  D
C829        C922   1.441       .  S
C834        C835   1.536       .  S
C834        C840   1.536       .  S
C834        C838   1.536       .  S
C834        C932   1.469       .  S
C835        H842   1.086       .  S
C835        C836   1.363       .  D
C836        C837   1.535       .  S
C836        C918   1.441       .  S
C837        C841   1.535       .  S
C837        C839   1.535       .  S
C837        H843   1.112       .  S
C838        H844   1.087       .  S
C838        C839   1.365       .  D
C839        C916   1.442       .  S
C840        H845   1.086       .  S
C840        C841   1.364       .  D
C841        C920   1.441       .  S
C846        C847   1.536       .  S
C846        C852   1.536       .  S
C846        C850   1.536       .  S
C846        C937   1.469       .  S
C847        H854   1.086       .  S
C847        C848   1.364       .  D
C848        C849   1.535       .  S
C848        C925   1.441       .  S
C849        C853   1.535       .  S
C849        C851   1.536       .  S
C849        H855   1.112       .  S
C850        H856   1.087       .  S
C850        C851   1.365       .  D
C851        C917   1.442       .  S
C852        H857   1.086       .  S
C852        C853   1.363       .  D
C853        C915   1.441       .  S
C858        C859   1.536       .  S
C858        C864   1.536       .  S
C858        C862   1.536       .  S
C858        C940   1.469       .  S
C859        H866   1.086       .  S
C859        C860   1.364       .  D
C860        C861   1.535       .  S
C860        C911   1.442       .  S
C861        C865   1.535       .  S
C861        C863   1.535       .  S
C861        H867   1.112       .  S
C862        H868   1.087       .  S
C862        C863   1.365       .  D
C863        C912   1.442       .  S
C864        H869   1.086       .  S
C864        C865   1.364       .  D
C865        C927   1.441       .  S
C870        C871   1.536       .  S
C870        C876   1.536       .  S
C870        C874   1.536       .  S
C870        C935   1.469       .  S
C871        H878   1.086       .  S
C871        C872   1.364       .  D
C872        C873   1.535       .  S
C872        C914   1.441       .  S
C873        C877   1.535       .  S
C873        C875   1.536       .  S
C873        H879   1.112       .  S
C874        H880   1.087       .  S
C874        C875   1.365       .  D
C875        C908   1.442       .  S
C876        H881   1.086       .  S
C876        C877   1.364       .  D
C877        C910   1.441       .  S
C882        C883   1.536       .  S
C882        C888   1.536       .  S
C882        C886   1.536       .  S
C882        C945   1.470       .  S
C883        H890   1.086       .  S
C883        C884   1.364       .  D
C884        C885   1.535       .  S
C884        C906   1.442       .  S
C885        C889   1.535       .  S
C885        C887   1.535       .  S
C885        H891   1.112       .  S
C886        H892   1.087       .  S
C886        C887   1.365       .  D
C887        C909   1.442       .  S
C888        H893   1.086       .  S
C888        C889   1.364       .  D
C889        C919   1.441       .  S
C894        C895   1.536       .  S
C894        C900   1.536       .  S
C894        C898   1.536       .  S
C894        C938   1.470       .  S
C895        H902   1.086       .  S
C895        C896   1.364       .  D
C896        C897   1.535       .  S
C896        C923   1.441       .  S
C897        C901   1.535       .  S
C897        C899   1.535       .  S
C897        H903   1.112       .  S
C898        H904   1.087       .  S
C898        C899   1.365       .  D
C899        C913   1.442       .  S
C900        H905   1.086       .  S
C900        C901   1.364       .  D
C901        C907   1.442       .  S
C906        C907   1.206       .  T
C908        C909   1.206       .  T
C910        C911   1.206       .  T
C912        C913   1.206       .  T
C914        C915   1.206       .  T
C916        C917   1.206       .  T
C918        C919   1.206       .  T
C920        C921   1.206       .  T
C922        C923   1.206       .  T
C924        C925   1.205       .  T
C926        C927   1.206       .  T
C928        C929   1.206       .  T
C930        C931   1.206       .  T
C932        C933   1.207       .  T
C934        C935   1.207       .  T
C936        C937   1.206       .  T
C938        C939   1.207       .  T
C940        C941   1.207       .  T
C942        C943   1.207       .  T
C944        C945   1.207       .  T
C946        N964   1.348       .  A
C946        C983   1.456       .  S
C946       C1133   1.437       .  S
N947        N964   1.325       .  A
N947        N969   1.321       .  A
N947      Co1362   2.087       .  S
C948        N973   1.342       .  A
C948        C986   1.456       .  S
C948        H993   1.082       .  S
H949        C990   1.082       .  S
C950        N974   1.341       .  A
C950        C954   1.455       .  S
C950        H979   1.082       .  S
Co951       N959   2.087       .  S
Co951      N1180   2.086   1_556  S
Co951      N1345   2.086       .  S
N952        C990   1.342       .  A
N952        N959   1.321       .  A
Co953       N956   2.086       .  S
Co953      N1338   2.086       .  S
Co953     Cl1184   2.452       .  S
C954        N992   1.348       .  A
C954       C1132   1.437       .  S
N955        N962   1.321       .  A
N955        N985   1.325       .  A
N955      Co1366   2.086       .  S
N956        N974   1.321       .  A
N956        N992   1.325       .  A
N957        C986   1.348       .  A
N957        N967   1.325       .  A
H958        C983   1.082       .  S
N959        N980   1.325       .  A
N960        N978   1.321       .  A
N960        N965   1.325       .  A
N960      Co1331   2.086       .  S
C961        N965   1.348       .  A
C961        C989   1.455       .  S
C961       C1119   1.436       .  S
N962        C977   1.341       .  A
C963        N991   1.342       .  A
C963        C966   1.456       .  S
C963        H997   1.082       .  S
C966        N987   1.348       .  A
C966       C1123   1.437       .  S
N967        N973   1.321       .  A
N967      Co1329   2.086       .  S
N968        C994   1.341       .  A
N968        N970   1.321       .  A
N969        C983   1.342       .  A
N970        N998   1.325       .  A
N970       Co988   2.086       .  S
H971        C994   1.082       .  S
H972        C989   1.082       .  S
N974      Co1177   2.085   1_556  S
N975        N987   1.325       .  A
N975        N991   1.321       .  A
N975       Co984   2.086       .  S
C976        N980   1.348       .  A
C976        C990   1.456       .  S
C976       C1128   1.437       .  S
C977        C996   1.455       .  S
C977        H981   1.082       .  S
N978        C989   1.341       .  A
C982        N998   1.348       .  A
C982        C994   1.455       .  S
C982       C1125   1.437       .  S
Co984      N1325   2.087   1_545  S
N985        C996   1.348       .  A
C986       C1130   1.437       .  S
Co988      N1333   2.086   1_545  S
Co988      N1163   2.085   1_545  S
Co988      Cl995   2.452       .  S
N991      Co1140   2.086       .  S
Cl995     Co1142   2.452       .  S
C996       C1122   1.437       .  S
C999       C1000   1.536       .  S
C999       C1005   1.536       .  S
C999       C1003   1.536       .  S
C999       C1120   1.469       .  S
C1000      H1007   1.086       .  S
C1000      C1001   1.364       .  D
C1001      C1002   1.535       .  S
C1001      C1115   1.441       .  S
C1002      C1006   1.535       .  S
C1002      C1004   1.536       .  S
C1002      H1008   1.112       .  S
C1003      H1009   1.087       .  S
C1003      C1004   1.365       .  D
C1004      C1118   1.442       .  S
C1005      H1010   1.086       .  S
C1005      C1006   1.364       .  D
C1006      C1113   1.441       .  S
C1011      C1012   1.536       .  S
C1011      C1017   1.536       .  S
C1011      C1015   1.536       .  S
C1011      C1131   1.469       .  S
C1012      H1019   1.086       .  S
C1012      C1013   1.364       .  D
C1013      C1014   1.535       .  S
C1013      C1110   1.441       .  S
C1014      C1018   1.535       .  S
C1014      C1016   1.535       .  S
C1014      H1020   1.112       .  S
C1015      H1021   1.087       .  S
C1015      C1016   1.365       .  D
C1016      C1117   1.442       .  S
C1017      H1022   1.086       .  S
C1017      C1018   1.364       .  D
C1018      C1111   1.441       .  S
C1023      C1024   1.536       .  S
C1023      C1029   1.536       .  S
C1023      C1027   1.536       .  S
C1023      C1121   1.469       .  S
C1024      H1031   1.086       .  S
C1024      C1025   1.363       .  D
C1025      C1026   1.535       .  S
C1025      C1107   1.441       .  S
C1026      C1030   1.535       .  S
C1026      C1028   1.535       .  S
C1026      H1032   1.112       .  S
C1027      H1033   1.087       .  S
C1027      C1028   1.365       .  D
C1028      C1105   1.442       .  S
C1029      H1034   1.086       .  S
C1029      C1030   1.364       .  D
C1030      C1109   1.441       .  S
C1035      C1036   1.536       .  S
C1035      C1041   1.536       .  S
C1035      C1039   1.536       .  S
C1035      C1126   1.469       .  S
C1036      H1043   1.086       .  S
C1036      C1037   1.364       .  D
C1037      C1038   1.535       .  S
C1037      C1114   1.441       .  S
C1038      C1042   1.535       .  S
C1038      C1040   1.536       .  S
C1038      H1044   1.112       .  S
C1039      H1045   1.087       .  S
C1039      C1040   1.365       .  D
C1040      C1106   1.442       .  S
C1041      H1046   1.086       .  S
C1041      C1042   1.363       .  D
C1042      C1104   1.441       .  S
C1047      C1048   1.536       .  S
C1047      C1053   1.536       .  S
C1047      C1051   1.536       .  S
C1047      C1129   1.469       .  S
C1048      H1055   1.086       .  S
C1048      C1049   1.364       .  D
C1049      C1050   1.535       .  S
C1049      C1100   1.442       .  S
C1050      C1054   1.535       .  S
C1050      C1052   1.535       .  S
C1050      H1056   1.112       .  S
C1051      H1057   1.087       .  S
C1051      C1052   1.365       .  D
C1052      C1101   1.442       .  S
C1053      H1058   1.086       .  S
C1053      C1054   1.364       .  D
C1054      C1116   1.441       .  S
C1059      C1060   1.536       .  S
C1059      C1065   1.536       .  S
C1059      C1063   1.536       .  S
C1059      C1124   1.469       .  S
C1060      H1067   1.086       .  S
C1060      C1061   1.364       .  D
C1061      C1062   1.535       .  S
C1061      C1103   1.441       .  S
C1062      C1066   1.535       .  S
C1062      C1064   1.536       .  S
C1062      H1068   1.112       .  S
C1063      H1069   1.087       .  S
C1063      C1064   1.365       .  D
C1064      C1097   1.442       .  S
C1065      H1070   1.086       .  S
C1065      C1066   1.364       .  D
C1066      C1099   1.441       .  S
C1071      C1072   1.536       .  S
C1071      C1077   1.536       .  S
C1071      C1075   1.536       .  S
C1071      C1134   1.470       .  S
C1072      H1079   1.086       .  S
C1072      C1073   1.364       .  D
C1073      C1074   1.535       .  S
C1073      C1095   1.442       .  S
C1074      C1078   1.535       .  S
C1074      C1076   1.535       .  S
C1074      H1080   1.112       .  S
C1075      H1081   1.087       .  S
C1075      C1076   1.365       .  D
C1076      C1098   1.442       .  S
C1077      H1082   1.086       .  S
C1077      C1078   1.364       .  D
C1078      C1108   1.441       .  S
C1083      C1084   1.536       .  S
C1083      C1089   1.536       .  S
C1083      C1087   1.536       .  S
C1083      C1127   1.470       .  S
C1084      H1091   1.086       .  S
C1084      C1085   1.364       .  D
C1085      C1086   1.535       .  S
C1085      C1112   1.441       .  S
C1086      C1090   1.535       .  S
C1086      C1088   1.535       .  S
C1086      H1092   1.112       .  S
C1087      H1093   1.087       .  S
C1087      C1088   1.365       .  D
C1088      C1102   1.442       .  S
C1089      H1094   1.086       .  S
C1089      C1090   1.364       .  D
C1090      C1096   1.442       .  S
C1095      C1096   1.206       .  T
C1097      C1098   1.206       .  T
C1099      C1100   1.206       .  T
C1101      C1102   1.206       .  T
C1103      C1104   1.206       .  T
C1105      C1106   1.206       .  T
C1107      C1108   1.206       .  T
C1109      C1110   1.206       .  T
C1111      C1112   1.206       .  T
C1113      C1114   1.205       .  T
C1115      C1116   1.206       .  T
C1117      C1118   1.206       .  T
C1119      C1120   1.206       .  T
C1121      C1122   1.207       .  T
C1123      C1124   1.207       .  T
C1125      C1126   1.206       .  T
C1127      C1128   1.207       .  T
C1129      C1130   1.207       .  T
C1131      C1132   1.207       .  T
C1133      C1134   1.207       .  T
C1135      N1153   1.348       .  A
C1135      C1172   1.456       .  S
C1135      C1322   1.437       .  S
N1136      N1153   1.325       .  A
N1136      N1158   1.321       .  A
C1137      N1162   1.342       .  A
C1137      C1175   1.456       .  S
C1137      H1182   1.082       .  S
H1138      C1179   1.082       .  S
C1139      N1163   1.341       .  A
C1139      C1143   1.455       .  S
C1139      H1168   1.082       .  S
Co1140     N1347   2.086   1_545  S
Co1140     N1148   2.087   1_545  S
N1141      C1179   1.342       .  A
N1141      N1148   1.321       .  A
Co1142     N1145   2.086   1_545  S
C1143      N1181   1.348       .  A
C1143      C1321   1.437       .  S
N1144      N1151   1.321       .  A
N1144      N1174   1.325       .  A
N1145      N1163   1.321       .  A
N1145      N1181   1.325       .  A
N1146      C1175   1.348       .  A
N1146      N1156   1.325       .  A
H1147      C1172   1.082       .  S
N1148      N1169   1.325       .  A
N1149      N1167   1.321       .  A
N1149      N1154   1.325       .  A
C1150      N1154   1.348       .  A
C1150      C1178   1.455       .  S
C1150      C1308   1.436       .  S
N1151      C1166   1.341       .  A
C1152      N1180   1.342       .  A
C1152      C1155   1.456       .  S
C1152      H1186   1.082       .  S
C1155      N1176   1.348       .  A
C1155      C1312   1.437       .  S
N1156      N1162   1.321       .  A
N1157      C1183   1.341       .  A
N1157      N1159   1.321       .  A
N1158      C1172   1.342       .  A
N1158     Co1329   2.086   1_564  S
N1159      N1187   1.325       .  A
N1159     Co1177   2.086       .  S
H1160      C1183   1.082       .  S
H1161      C1178   1.082       .  S
N1164      N1176   1.325       .  A
N1164      N1180   1.321       .  A
N1164     Co1173   2.086       .  S
C1165      N1169   1.348       .  A
C1165      C1179   1.456       .  S
C1165      C1317   1.437       .  S
C1166      C1185   1.455       .  S
C1166      H1170   1.082       .  S
N1167      C1178   1.341       .  A
N1167     Co1366   2.085       .  S
C1171      N1187   1.348       .  A
C1171      C1183   1.455       .  S
C1171      C1314   1.437       .  S
N1174      C1185   1.348       .  A
C1175      C1319   1.437       .  S
Co1177     N1356   2.085   1_554  S
Co1177    Cl1184   2.452   1_554  S
C1185      C1311   1.437       .  S
C1188      C1189   1.536       .  S
C1188      C1194   1.536       .  S
C1188      C1192   1.536       .  S
C1188      C1309   1.469       .  S
C1189      H1196   1.086       .  S
C1189      C1190   1.364       .  D
C1190      C1191   1.535       .  S
C1190      C1304   1.441       .  S
C1191      C1195   1.535       .  S
C1191      C1193   1.536       .  S
C1191      H1197   1.112       .  S
C1192      H1198   1.087       .  S
C1192      C1193   1.365       .  D
C1193      C1307   1.442       .  S
C1194      H1199   1.086       .  S
C1194      C1195   1.364       .  D
C1195      C1302   1.441       .  S
C1200      C1201   1.536       .  S
C1200      C1206   1.536       .  S
C1200      C1204   1.536       .  S
C1200      C1320   1.469       .  S
C1201      H1208   1.086       .  S
C1201      C1202   1.364       .  D
C1202      C1203   1.535       .  S
C1202      C1299   1.441       .  S
C1203      C1207   1.535       .  S
C1203      C1205   1.535       .  S
C1203      H1209   1.112       .  S
C1204      H1210   1.087       .  S
C1204      C1205   1.365       .  D
C1205      C1306   1.442       .  S
C1206      H1211   1.086       .  S
C1206      C1207   1.364       .  D
C1207      C1300   1.441       .  S
C1212      C1213   1.536       .  S
C1212      C1218   1.536       .  S
C1212      C1216   1.536       .  S
C1212      C1310   1.469       .  S
C1213      H1220   1.086       .  S
C1213      C1214   1.363       .  D
C1214      C1215   1.535       .  S
C1214      C1296   1.441       .  S
C1215      C1219   1.535       .  S
C1215      C1217   1.535       .  S
C1215      H1221   1.112       .  S
C1216      H1222   1.087       .  S
C1216      C1217   1.365       .  D
C1217      C1294   1.442       .  S
C1218      H1223   1.086       .  S
C1218      C1219   1.364       .  D
C1219      C1298   1.441       .  S
C1224      C1225   1.536       .  S
C1224      C1230   1.536       .  S
C1224      C1228   1.536       .  S
C1224      C1315   1.469       .  S
C1225      H1232   1.086       .  S
C1225      C1226   1.364       .  D
C1226      C1227   1.535       .  S
C1226      C1303   1.441       .  S
C1227      C1231   1.535       .  S
C1227      C1229   1.536       .  S
C1227      H1233   1.112       .  S
C1228      H1234   1.087       .  S
C1228      C1229   1.365       .  D
C1229      C1295   1.442       .  S
C1230      H1235   1.086       .  S
C1230      C1231   1.363       .  D
C1231      C1293   1.441       .  S
C1236      C1237   1.536       .  S
C1236      C1242   1.536       .  S
C1236      C1240   1.536       .  S
C1236      C1318   1.469       .  S
C1237      H1244   1.086       .  S
C1237      C1238   1.364       .  D
C1238      C1239   1.535       .  S
C1238      C1289   1.442       .  S
C1239      C1243   1.535       .  S
C1239      C1241   1.535       .  S
C1239      H1245   1.112       .  S
C1240      H1246   1.087       .  S
C1240      C1241   1.365       .  D
C1241      C1290   1.442       .  S
C1242      H1247   1.086       .  S
C1242      C1243   1.364       .  D
C1243      C1305   1.441       .  S
C1248      C1249   1.536       .  S
C1248      C1254   1.536       .  S
C1248      C1252   1.536       .  S
C1248      C1313   1.469       .  S
C1249      H1256   1.086       .  S
C1249      C1250   1.364       .  D
C1250      C1251   1.535       .  S
C1250      C1292   1.441       .  S
C1251      C1255   1.535       .  S
C1251      C1253   1.536       .  S
C1251      H1257   1.112       .  S
C1252      H1258   1.087       .  S
C1252      C1253   1.365       .  D
C1253      C1286   1.442       .  S
C1254      H1259   1.086       .  S
C1254      C1255   1.364       .  D
C1255      C1288   1.441       .  S
C1260      C1261   1.536       .  S
C1260      C1266   1.536       .  S
C1260      C1264   1.536       .  S
C1260      C1323   1.470       .  S
C1261      H1268   1.086       .  S
C1261      C1262   1.364       .  D
C1262      C1263   1.535       .  S
C1262      C1284   1.442       .  S
C1263      C1267   1.535       .  S
C1263      C1265   1.535       .  S
C1263      H1269   1.112       .  S
C1264      H1270   1.087       .  S
C1264      C1265   1.365       .  D
C1265      C1287   1.442       .  S
C1266      H1271   1.086       .  S
C1266      C1267   1.364       .  D
C1267      C1297   1.441       .  S
C1272      C1273   1.536       .  S
C1272      C1278   1.536       .  S
C1272      C1276   1.536       .  S
C1272      C1316   1.470       .  S
C1273      H1280   1.086       .  S
C1273      C1274   1.364       .  D
C1274      C1275   1.535       .  S
C1274      C1301   1.441       .  S
C1275      C1279   1.535       .  S
C1275      C1277   1.535       .  S
C1275      H1281   1.112       .  S
C1276      H1282   1.087       .  S
C1276      C1277   1.365       .  D
C1277      C1291   1.442       .  S
C1278      H1283   1.086       .  S
C1278      C1279   1.364       .  D
C1279      C1285   1.442       .  S
C1284      C1285   1.206       .  T
C1286      C1287   1.206       .  T
C1288      C1289   1.206       .  T
C1290      C1291   1.206       .  T
C1292      C1293   1.206       .  T
C1294      C1295   1.206       .  T
C1296      C1297   1.206       .  T
C1298      C1299   1.206       .  T
C1300      C1301   1.206       .  T
C1302      C1303   1.205       .  T
C1304      C1305   1.206       .  T
C1306      C1307   1.206       .  T
C1308      C1309   1.206       .  T
C1310      C1311   1.207       .  T
C1312      C1313   1.207       .  T
C1314      C1315   1.206       .  T
C1316      C1317   1.207       .  T
C1318      C1319   1.207       .  T
C1320      C1321   1.207       .  T
C1322      C1323   1.207       .  T
C1324      N1342   1.348       .  A
C1324      C1361   1.456       .  S
C1324      C1511   1.437       .  S
N1325      N1342   1.325       .  A
N1325      N1347   1.321       .  A
C1326      N1351   1.342       .  A
C1326      C1364   1.456       .  S
C1326      H1371   1.082       .  S
H1327      C1368   1.082       .  S
C1328      N1352   1.341       .  A
C1328      C1332   1.455       .  S
C1328      H1357   1.082       .  S
Co1329     N1337   2.087   1_545  S
N1330      C1368   1.342       .  A
N1330      N1337   1.321       .  A
Co1331     N1334   2.086   1_545  S
C1332      N1370   1.348       .  A
C1332      C1510   1.437       .  S
N1333      N1340   1.321       .  A
N1333      N1363   1.325       .  A
N1334      N1352   1.321       .  A
N1334      N1370   1.325       .  A
N1335      C1364   1.348       .  A
N1335      N1345   1.325       .  A
H1336      C1361   1.082       .  S
N1337      N1358   1.325       .  A
N1338      N1356   1.321       .  A
N1338      N1343   1.325       .  A
C1339      N1343   1.348       .  A
C1339      C1367   1.455       .  S
C1339      C1497   1.436       .  S
N1340      C1355   1.341       .  A
C1341      N1369   1.342       .  A
C1341      C1344   1.456       .  S
C1341      H1375   1.082       .  S
C1344      N1365   1.348       .  A
C1344      C1501   1.437       .  S
N1345      N1351   1.321       .  A
N1346      C1372   1.341       .  A
N1346      N1348   1.321       .  A
N1347      C1361   1.342       .  A
N1348      N1376   1.325       .  A
N1348     Co1366   2.086       .  S
H1349      C1372   1.082       .  S
H1350      C1367   1.082       .  S
N1353      N1365   1.325       .  A
N1353      N1369   1.321       .  A
N1353     Co1362   2.086       .  S
C1354      N1358   1.348       .  A
C1354      C1368   1.456       .  S
C1354      C1506   1.437       .  S
C1355      C1374   1.455       .  S
C1355      H1359   1.082       .  S
N1356      C1367   1.341       .  A
C1360      N1376   1.348       .  A
C1360      C1372   1.455       .  S
C1360      C1503   1.437       .  S
N1363      C1374   1.348       .  A
C1364      C1508   1.437       .  S
Co1366    Cl1373   2.452       .  S
C1374      C1500   1.437       .  S
C1377      C1378   1.536       .  S
C1377      C1383   1.536       .  S
C1377      C1381   1.536       .  S
C1377      C1498   1.469       .  S
C1378      H1385   1.086       .  S
C1378      C1379   1.364       .  D
C1379      C1380   1.535       .  S
C1379      C1493   1.441       .  S
C1380      C1384   1.535       .  S
C1380      C1382   1.536       .  S
C1380      H1386   1.112       .  S
C1381      H1387   1.087       .  S
C1381      C1382   1.365       .  D
C1382      C1496   1.442       .  S
C1383      H1388   1.086       .  S
C1383      C1384   1.364       .  D
C1384      C1491   1.441       .  S
C1389      C1390   1.536       .  S
C1389      C1395   1.536       .  S
C1389      C1393   1.536       .  S
C1389      C1509   1.469       .  S
C1390      H1397   1.086       .  S
C1390      C1391   1.364       .  D
C1391      C1392   1.535       .  S
C1391      C1488   1.441       .  S
C1392      C1396   1.535       .  S
C1392      C1394   1.535       .  S
C1392      H1398   1.112       .  S
C1393      H1399   1.087       .  S
C1393      C1394   1.365       .  D
C1394      C1495   1.442       .  S
C1395      H1400   1.086       .  S
C1395      C1396   1.364       .  D
C1396      C1489   1.441       .  S
C1401      C1402   1.536       .  S
C1401      C1407   1.536       .  S
C1401      C1405   1.536       .  S
C1401      C1499   1.469       .  S
C1402      H1409   1.086       .  S
C1402      C1403   1.363       .  D
C1403      C1404   1.535       .  S
C1403      C1485   1.441       .  S
C1404      C1408   1.535       .  S
C1404      C1406   1.535       .  S
C1404      H1410   1.112       .  S
C1405      H1411   1.087       .  S
C1405      C1406   1.365       .  D
C1406      C1483   1.442       .  S
C1407      H1412   1.086       .  S
C1407      C1408   1.364       .  D
C1408      C1487   1.441       .  S
C1413      C1414   1.536       .  S
C1413      C1419   1.536       .  S
C1413      C1417   1.536       .  S
C1413      C1504   1.469       .  S
C1414      H1421   1.086       .  S
C1414      C1415   1.364       .  D
C1415      C1416   1.535       .  S
C1415      C1492   1.441       .  S
C1416      C1420   1.535       .  S
C1416      C1418   1.536       .  S
C1416      H1422   1.112       .  S
C1417      H1423   1.087       .  S
C1417      C1418   1.365       .  D
C1418      C1484   1.442       .  S
C1419      H1424   1.086       .  S
C1419      C1420   1.363       .  D
C1420      C1482   1.441       .  S
C1425      C1426   1.536       .  S
C1425      C1431   1.536       .  S
C1425      C1429   1.536       .  S
C1425      C1507   1.469       .  S
C1426      H1433   1.086       .  S
C1426      C1427   1.364       .  D
C1427      C1428   1.535       .  S
C1427      C1478   1.442       .  S
C1428      C1432   1.535       .  S
C1428      C1430   1.535       .  S
C1428      H1434   1.112       .  S
C1429      H1435   1.087       .  S
C1429      C1430   1.365       .  D
C1430      C1479   1.442       .  S
C1431      H1436   1.086       .  S
C1431      C1432   1.364       .  D
C1432      C1494   1.441       .  S
C1437      C1438   1.536       .  S
C1437      C1443   1.536       .  S
C1437      C1441   1.536       .  S
C1437      C1502   1.469       .  S
C1438      H1445   1.086       .  S
C1438      C1439   1.364       .  D
C1439      C1440   1.535       .  S
C1439      C1481   1.441       .  S
C1440      C1444   1.535       .  S
C1440      C1442   1.536       .  S
C1440      H1446   1.112       .  S
C1441      H1447   1.087       .  S
C1441      C1442   1.365       .  D
C1442      C1475   1.442       .  S
C1443      H1448   1.086       .  S
C1443      C1444   1.364       .  D
C1444      C1477   1.441       .  S
C1449      C1450   1.536       .  S
C1449      C1455   1.536       .  S
C1449      C1453   1.536       .  S
C1449      C1512   1.470       .  S
C1450      H1457   1.086       .  S
C1450      C1451   1.364       .  D
C1451      C1452   1.535       .  S
C1451      C1473   1.442       .  S
C1452      C1456   1.535       .  S
C1452      C1454   1.535       .  S
C1452      H1458   1.112       .  S
C1453      H1459   1.087       .  S
C1453      C1454   1.365       .  D
C1454      C1476   1.442       .  S
C1455      H1460   1.086       .  S
C1455      C1456   1.364       .  D
C1456      C1486   1.441       .  S
C1461      C1462   1.536       .  S
C1461      C1467   1.536       .  S
C1461      C1465   1.536       .  S
C1461      C1505   1.470       .  S
C1462      H1469   1.086       .  S
C1462      C1463   1.364       .  D
C1463      C1464   1.535       .  S
C1463      C1490   1.441       .  S
C1464      C1468   1.535       .  S
C1464      C1466   1.535       .  S
C1464      H1470   1.112       .  S
C1465      H1471   1.087       .  S
C1465      C1466   1.365       .  D
C1466      C1480   1.442       .  S
C1467      H1472   1.086       .  S
C1467      C1468   1.364       .  D
C1468      C1474   1.442       .  S
C1473      C1474   1.206       .  T
C1475      C1476   1.206       .  T
C1477      C1478   1.206       .  T
C1479      C1480   1.206       .  T
C1481      C1482   1.206       .  T
C1483      C1484   1.206       .  T
C1485      C1486   1.206       .  T
C1487      C1488   1.206       .  T
C1489      C1490   1.206       .  T
C1491      C1492   1.205       .  T
C1493      C1494   1.206       .  T
C1495      C1496   1.206       .  T
C1497      C1498   1.206       .  T
C1499      C1500   1.207       .  T
C1501      C1502   1.207       .  T
C1503      C1504   1.206       .  T
C1505      C1506   1.207       .  T
C1507      C1508   1.207       .  T
C1509      C1510   1.207       .  T
C1511      C1512   1.207       .  T
