geometry optimzed in LAMMPS
_audit_creation_date              2020-11-30 
_audit_creation_method            'lammps2cif' 
_symmetry_space_group_name_H-M    'P1' 
_symmetry_Int_Tables_number       1 
_symmetry_cell_setting            triclinic 
loop_ 
_symmetry_equiv_pos_as_xyz 
  x,y,z 
_cell_length_a                    42.5529035634791 
_cell_length_b                    42.55289540351363 
_cell_length_c                    42.55293187434434 
_cell_angle_alpha                 89.99963980417827 
_cell_angle_beta                  90.00143923273417 
_cell_angle_gamma                 90.00102778983448 
loop_ 
_atom_site_label 
_atom_site_type_symbol 
_atom_site_fract_x 
_atom_site_fract_y 
_atom_site_fract_z 
_atom_site_charge 
C1          C  0.36643040  0.36643320  0.99993237     0.06470
C2          C  0.37499731  0.33455230  0.99995603    -0.09680
C3          C  0.35166616  0.31134566  0.49999280     0.03970
C4          C  0.31997900  0.31998212  0.50000960    -0.08200
C5          C  0.31134270  0.35166932  0.49999271     0.06460
C6          C  0.33454955  0.37500030  0.99995593    -0.07620
H7          H  0.39958909  0.32788357  0.99993491     0.12060
H8          H  0.30193650  0.30193972  0.50003184     0.09590
H9          H  0.32788099  0.39959212  0.99993473     0.09430
C10         C  0.36642839  0.16210548  0.00008422     0.06470
C11         C  0.37499634  0.19398652  0.00005599    -0.09680
C12         C  0.35166591  0.21719316  0.50001010     0.03970
C13         C  0.31997857  0.20855666  0.49998854    -0.08200
C14         C  0.31134118  0.17686956  0.50001006     0.06460
C15         C  0.33454713  0.15353848  0.00005593    -0.07620
H16         H  0.39958831  0.20065536  0.00008156     0.12060
H17         H  0.30193668  0.22659905  0.49996017     0.09590
H18         H  0.32787758  0.12894670  0.00008146     0.09430
C19         C  0.16210084  0.16210796  0.99993257     0.06470
C20         C  0.19398156  0.15354038  0.99995613    -0.09680
C21         C  0.21718865  0.17687109  0.49999274     0.03970
C22         C  0.20855279  0.20855841  0.50000946    -0.08200
C23         C  0.17686576  0.21719530  0.49999266     0.06460
C24         C  0.15353438  0.19398895  0.99995604    -0.07620
H25         H  0.20064980  0.12894846  0.99993511     0.12060
H26         H  0.22659552  0.22660058  0.50003159     0.09590
H27         H  0.12894269  0.20065801  0.99993494     0.09430
C28         C  0.16210242  0.36643595  0.00008236     0.06470
C29         C  0.19398381  0.37500290  0.00005454    -0.09680
C30         C  0.21718984  0.35167174  0.50000948     0.03970
C31         C  0.20855247  0.31998469  0.49998834    -0.08200
C32         C  0.17686520  0.31134810  0.50000945     0.06460
C33         C  0.15353466  0.33455475  0.00005450    -0.07620
H34         H  0.20065339  0.39959466  0.00007980     0.12060
H35         H  0.22659438  0.30194233  0.49996057     0.09590
H36         H  0.12894273  0.32788579  0.00007972     0.09430
C37         C  0.36642717  0.01418864  0.35219654     0.06470
C38         C  0.33454646  0.01421346  0.36076349    -0.09680
C39         C  0.31133974  0.01425311  0.33743241     0.03970
C40         C  0.31997599  0.01427166  0.30574522    -0.08200
C41         C  0.35166320  0.01425350  0.29710900     0.06460
C42         C  0.37499419  0.01421390  0.32031584    -0.07620
H43         H  0.32787792  0.01419074  0.38535526     0.12060
H44         H  0.30193350  0.01429582  0.28770272     0.09590
H45         H  0.39958600  0.01419148  0.31364739     0.09430
C46         C  0.16209993  0.01434097  0.35219648     0.06470
C47         C  0.19398104  0.01431379  0.36076440    -0.09680
C48         C  0.21718743  0.01427040  0.33743390     0.03970
C49         C  0.20855066  0.01425031  0.30574663    -0.08200
C50         C  0.17686354  0.01427068  0.29710927     0.06460
C51         C  0.15353266  0.01431411  0.32031524    -0.07620
H52         H  0.20065011  0.01433800  0.38535634     0.12060
H53         H  0.22659290  0.01422363  0.28770473     0.09590
H54         H  0.12894083  0.01433855  0.31364571     0.09430
C55         C  0.16210078  0.01418960  0.14786897     0.06470
C56         C  0.19398174  0.01421465  0.13930242    -0.09680
C57         C  0.21718844  0.01425375  0.16263371     0.03970
C58         C  0.20855187  0.01427157  0.19432075    -0.08200
C59         C  0.17686464  0.01425338  0.20295673     0.06460
C60         C  0.15353365  0.01421423  0.17974974    -0.07620
H61         H  0.20065052  0.01419249  0.11471072     0.12060
H62         H  0.22659422  0.01429536  0.21236341     0.09590
H63         H  0.12894182  0.01419176  0.18641813     0.09430
C64         C  0.36642931  0.01433895  0.14786858     0.06470
C65         C  0.37499682  0.01431246  0.17974995    -0.09680
C66         C  0.35166606  0.01427029  0.20295631     0.03970
C67         C  0.31997886  0.01425074  0.19431933    -0.08200
C68         C  0.31134160  0.01427056  0.16263224     0.06460
C69         C  0.33454783  0.01431277  0.13930136    -0.07620
H70         H  0.39958870  0.01433615  0.18641926     0.12060
H71         H  0.30193685  0.01422486  0.21236149     0.09590
H72         H  0.32787833  0.01433669  0.11470956     0.09430
C73         C  0.01436476  0.16210859  0.35219435     0.06470
C74         C  0.01434212  0.19398968  0.36076122    -0.09680
C75         C  0.01430729  0.21719616  0.33743010     0.03970
C76         C  0.01429141  0.20855938  0.30574299    -0.08200
C77         C  0.01430736  0.17687214  0.29710663     0.06460
C78         C  0.01434225  0.15354128  0.32031340    -0.07620
H79         H  0.01436240  0.20065870  0.38535297     0.12060
H80         H  0.01427047  0.22660162  0.28770054     0.09590
H81         H  0.01436260  0.12894942  0.31364470     0.09430
C82         C  0.01421557  0.36643671  0.35219312     0.06470
C83         C  0.01424445  0.33455565  0.36076066    -0.09680
C84         C  0.01429112  0.31134898  0.33742998     0.03970
C85         C  0.01431293  0.31998554  0.30574277    -0.08200
C86         C  0.01429070  0.35167265  0.29710575     0.06460
C87         C  0.01424395  0.37500373  0.32031198    -0.07620
H88         H  0.01421863  0.32788681  0.38535254     0.12060
H89         H  0.01434183  0.30194317  0.28770067     0.09590
H90         H  0.01421777  0.39959551  0.31364272     0.09430
C91         C  0.01421427  0.16210731  0.14786648     0.06470
C92         C  0.01424337  0.15354024  0.17974763    -0.09680
C93         C  0.01429031  0.17687128  0.20295392     0.03970
C94         C  0.01431217  0.20855840  0.19431692    -0.08200
C95         C  0.01428989  0.21719497  0.16262970     0.06460
C96         C  0.01424286  0.19398836  0.13929899    -0.07620
H97         H  0.01421752  0.12894845  0.18641683     0.12060
H98         H  0.01434128  0.22660077  0.21235902     0.09590
H99         H  0.01421664  0.20065725  0.11470712     0.09430
C100        C  0.01436667  0.36643505  0.14786559     0.06470
C101        C  0.01434345  0.37500240  0.17974648    -0.09680
C102        C  0.01430772  0.35167155  0.20295319     0.03970
C103        C  0.01429151  0.31998431  0.19431681    -0.08200
C104        C  0.01430777  0.31134759  0.16262970     0.06460
C105        C  0.01434357  0.33455405  0.13929863    -0.07620
H106        H  0.01436406  0.39959426  0.18641517     0.12060
H107        H  0.01426997  0.30194206  0.21235924     0.09590
H108        H  0.01436426  0.32788508  0.11470686     0.09430
O109        O  0.42487681  0.46309552  0.99978733    -0.83150
O110        O  0.10365545  0.46309883  0.00026435    -0.83310
O111        O  0.01403180  0.42488304  0.44885500    -0.84980
O112        O  0.01451113  0.42488180  0.05120321    -0.83740
O113        O  0.01450943  0.46309668  0.08941876    -0.83330
O114        O  0.01403011  0.46309899  0.41064016    -0.84700
O115        O  0.06544045  0.42488264  0.00026349    -0.83180
O116        O  0.46309252  0.42488122  0.99978541    -0.82760
Zr117      Zr  0.01426628  0.45077769  0.00002943     2.84310
O118        O  0.04609968  0.48243775  0.03186481    -1.04740
O119        O  0.48243072  0.48243734  0.46819639    -1.05470
C120        C  0.43423489  0.43423826  0.99973830     1.09960
C121        C  0.09429812  0.43424084  0.00030819     1.09900
C122        C  0.01398668  0.43424118  0.41999748     1.12890
C123        C  0.01455854  0.43423926  0.08006081     1.10670
H124        H  0.05920245  0.46933601  0.45509252     0.36220
O125        O  0.04610463  0.48243298  0.46819049    -1.25690
H126        H  0.46932880  0.46933090  0.04496747     0.35900
O127        O  0.48242610  0.48242967  0.03186996    -1.27370
O128        O  0.10365308  0.06544688  0.99978714    -0.83140
O129        O  0.42487474  0.06544325  0.00026567    -0.84640
O130        O  0.06543767  0.01451155  0.41064148    -0.83220
O131        O  0.06543918  0.01403156  0.08942018    -0.83270
O132        O  0.46309158  0.01450707  0.08942059    -0.82980
O133        O  0.46308946  0.01403147  0.41064257    -0.82780
O134        O  0.01450612  0.10366142  0.44885707    -0.83160
O135        O  0.01402992  0.10366062  0.05120463    -0.82620
O136        O  0.01450713  0.06544651  0.41064170    -0.83680
O137        O  0.01403095  0.06544496  0.08941981    -0.82840
O138        O  0.10365349  0.01451122  0.44885712    -0.83240
O139        O  0.42487500  0.01403000  0.44885784    -0.82960
O140        O  0.42487554  0.01450667  0.05120524    -0.82610
O141        O  0.10365412  0.01403232  0.05120543    -0.83020
O142        O  0.06543768  0.10366146  0.99978753    -0.83310
O143        O  0.46308975  0.10365951  0.00026503    -0.84650
Zr144      Zr  0.07775865  0.01427230  0.00003078     2.83100
Zr145      Zr  0.45077138  0.01427009  0.00003125     2.83500
Zr146      Zr  0.01426426  0.01427226  0.43653697     2.84090
Zr147      Zr  0.01426526  0.01427097  0.06352410     2.83360
Zr148      Zr  0.01426405  0.07776506  0.00003077     2.84220
O149        O  0.48243001  0.04610582  0.03186582    -1.05220
O150        O  0.04609817  0.04610647  0.46819725    -1.04730
C151        C  0.09429520  0.09430419  0.99973926     1.09930
C152        C  0.43423217  0.09430115  0.00030992     1.12550
C153        C  0.09429543  0.01455732  0.41999943     1.10110
C154        C  0.09429660  0.01398527  0.08006286     1.10470
C155        C  0.43423355  0.01455247  0.08006310     1.10050
C156        C  0.43423222  0.01398395  0.42000046     1.09600
C157        C  0.01455458  0.09430402  0.41999946     1.10030
C158        C  0.01398594  0.09430271  0.08006223     1.09540
H159        H  0.46932655  0.05920813  0.45509249     0.36220
O160        O  0.48242438  0.04611049  0.46819081    -1.26320
H161        H  0.05920323  0.05920917  0.04496774     0.36240
O162        O  0.04610477  0.04611118  0.03187014    -1.27710
C163        C  0.01453207  0.41039214  0.10390770    -0.09930
C164        C  0.01444873  0.39035428  0.12394599    -0.11490
C165        C  0.01430181  0.27842918  0.15498908    -0.09930
C166        C  0.01429764  0.25011343  0.15498886    -0.11490
C167        C  0.01411837  0.13818775  0.12394726    -0.09930
C168        C  0.01402348  0.11814964  0.10390933    -0.11490
C169        C  0.01430194  0.35931251  0.23587149    -0.09930
C170        C  0.01429808  0.35931303  0.26418722    -0.11490
C171        C  0.01411988  0.39035634  0.37611226    -0.09930
C172        C  0.01402479  0.41039445  0.39615019    -0.11490
C173        C  0.01430194  0.16923125  0.26418825    -0.09930
C174        C  0.01429810  0.16923085  0.23587249    -0.11490
C175        C  0.01430206  0.25011466  0.34507061    -0.09930
C176        C  0.01429854  0.27843046  0.34507081    -0.11490
C177        C  0.01444553  0.13818925  0.37611409    -0.09930
C178        C  0.01452804  0.11815127  0.39615242    -0.11490
C179        C  0.39034872  0.01442880  0.12394888    -0.09930
C180        C  0.41038656  0.01451886  0.10391056    -0.11490
C181        C  0.25010686  0.01426014  0.15499321    -0.09930
C182        C  0.27842270  0.01426393  0.15499205    -0.11490
C183        C  0.13818142  0.01410322  0.12394903    -0.09930
C184        C  0.11814361  0.01401599  0.10391031    -0.11490
C185        C  0.16922307  0.01426362  0.26419064    -0.09930
C186        C  0.16922375  0.01425964  0.23587491    -0.11490
C187        C  0.13818045  0.01443246  0.37611529    -0.09930
C188        C  0.11814225  0.01452363  0.39615273    -0.11490
C189        C  0.35930633  0.01426357  0.23587508    -0.09930
C190        C  0.35930441  0.01425984  0.26419085    -0.11490
C191        C  0.27842165  0.01425932  0.34507346    -0.09930
C192        C  0.25010595  0.01426324  0.34507471    -0.11490
C193        C  0.39034658  0.01410192  0.37611594    -0.09930
C194        C  0.41038490  0.01401457  0.39615383    -0.11490
C195        C  0.11814546  0.41039399  0.00027048    -0.09930
C196        C  0.13818330  0.39035575  0.00017640    -0.11490
C197        C  0.16922533  0.25011371  0.49999844    -0.09950
C198        C  0.16922446  0.27842949  0.50000222    -0.11490
C199        C  0.11814216  0.11815135  0.99976610    -0.09930
C200        C  0.13818081  0.13818900  0.99984981    -0.11490
C201        C  0.27842255  0.16922921  0.50000258    -0.09930
C202        C  0.25010681  0.16922989  0.49999864    -0.11490
C203        C  0.39034726  0.13818584  0.00017883    -0.09930
C204        C  0.41038498  0.11814774  0.00027285    -0.11490
C205        C  0.27842442  0.35931034  0.49999851    -0.09930
C206        C  0.25010864  0.35931171  0.50000228    -0.11490
C207        C  0.35930709  0.25011161  0.50000266    -0.09930
C208        C  0.35930682  0.27842736  0.49999873    -0.11490
C209        C  0.39035000  0.39035263  0.99984933    -0.09930
C210        C  0.41038815  0.41039081  0.99976533    -0.11490
C211        C  0.36643039  0.36643320  0.49993237     0.06470
C212        C  0.37499729  0.33455231  0.49995602    -0.09680
C213        C  0.35166617  0.31134566  0.99999281     0.03970
C214        C  0.31997901  0.31998213  0.00000961    -0.08200
C215        C  0.31134272  0.35166933  0.99999271     0.06460
C216        C  0.33454953  0.37500030  0.49995593    -0.07620
H217        H  0.39958907  0.32788358  0.49993491     0.12060
H218        H  0.30193651  0.30193973  0.00003185     0.09590
H219        H  0.32788096  0.39959212  0.49993473     0.09430
C220        C  0.36642839  0.16210548  0.50008422     0.06470
C221        C  0.37499633  0.19398652  0.50005599    -0.09680
C222        C  0.35166591  0.21719316  0.00001011     0.03970
C223        C  0.31997857  0.20855666  0.99998854    -0.08200
C224        C  0.31134118  0.17686956  0.00001006     0.06460
C225        C  0.33454713  0.15353848  0.50005594    -0.07620
H226        H  0.39958830  0.20065536  0.50008155     0.12060
H227        H  0.30193669  0.22659905  0.99996019     0.09590
H228        H  0.32787757  0.12894670  0.50008147     0.09430
C229        C  0.16210083  0.16210795  0.49993256     0.06470
C230        C  0.19398155  0.15354037  0.49995612    -0.09680
C231        C  0.21718866  0.17687109  0.99999274     0.03970
C232        C  0.20855280  0.20855841  0.00000945    -0.08200
C233        C  0.17686578  0.21719531  0.99999265     0.06460
C234        C  0.15353437  0.19398894  0.49995604    -0.07620
H235        H  0.20064980  0.12894846  0.49993509     0.12060
H236        H  0.22659554  0.22660057  0.00003157     0.09590
H237        H  0.12894268  0.20065799  0.49993495     0.09430
C238        C  0.16210241  0.36643594  0.50008238     0.06470
C239        C  0.19398380  0.37500288  0.50005455    -0.09680
C240        C  0.21718986  0.35167176  0.00000947     0.03970
C241        C  0.20855249  0.31998471  0.99998833    -0.08200
C242        C  0.17686523  0.31134812  0.00000943     0.06460
C243        C  0.15353464  0.33455474  0.50005452    -0.07620
H244        H  0.20065338  0.39959465  0.50007980     0.12060
H245        H  0.22659441  0.30194234  0.99996056     0.09590
H246        H  0.12894271  0.32788578  0.50007975     0.09430
C247        C  0.36642717  0.01418863  0.85219655     0.06470
C248        C  0.33454646  0.01421345  0.86076349    -0.09680
C249        C  0.31133974  0.01425311  0.83743241     0.03970
C250        C  0.31997599  0.01427165  0.80574522    -0.08200
C251        C  0.35166320  0.01425348  0.79710900     0.06460
C252        C  0.37499419  0.01421388  0.82031585    -0.07620
H253        H  0.32787791  0.01419073  0.88535527     0.12060
H254        H  0.30193350  0.01429581  0.78770272     0.09590
H255        H  0.39958600  0.01419147  0.81364741     0.09430
C256        C  0.16209993  0.01434097  0.85219648     0.06470
C257        C  0.19398104  0.01431379  0.86076439    -0.09680
C258        C  0.21718743  0.01427040  0.83743389     0.03970
C259        C  0.20855066  0.01425032  0.80574663    -0.08200
C260        C  0.17686354  0.01427068  0.79710927     0.06460
C261        C  0.15353266  0.01431411  0.82031524    -0.07620
H262        H  0.20065011  0.01433800  0.88535634     0.12060
H263        H  0.22659289  0.01422363  0.78770473     0.09590
H264        H  0.12894083  0.01433855  0.81364572     0.09430
C265        C  0.16210078  0.01418960  0.64786897     0.06470
C266        C  0.19398174  0.01421466  0.63930242    -0.09680
C267        C  0.21718844  0.01425376  0.66263372     0.03970
C268        C  0.20855187  0.01427158  0.69432076    -0.08200
C269        C  0.17686463  0.01425338  0.70295673     0.06460
C270        C  0.15353364  0.01421423  0.67974974    -0.07620
H271        H  0.20065052  0.01419249  0.61471073     0.12060
H272        H  0.22659421  0.01429536  0.71236342     0.09590
H273        H  0.12894182  0.01419176  0.68641813     0.09430
C274        C  0.36642931  0.01433894  0.64786858     0.06470
C275        C  0.37499682  0.01431246  0.67974995    -0.09680
C276        C  0.35166606  0.01427028  0.70295631     0.03970
C277        C  0.31997886  0.01425073  0.69431934    -0.08200
C278        C  0.31134160  0.01427056  0.66263225     0.06460
C279        C  0.33454783  0.01431277  0.63930137    -0.07620
H280        H  0.39958870  0.01433614  0.68641926     0.12060
H281        H  0.30193685  0.01422485  0.71236150     0.09590
H282        H  0.32787833  0.01433669  0.61470957     0.09430
C283        C  0.01436477  0.16210859  0.85219436     0.06470
C284        C  0.01434214  0.19398967  0.86076122    -0.09680
C285        C  0.01430732  0.21719616  0.83743011     0.03970
C286        C  0.01429142  0.20855938  0.80574300    -0.08200
C287        C  0.01430736  0.17687214  0.79710663     0.06460
C288        C  0.01434225  0.15354128  0.82031340    -0.07620
H289        H  0.01436242  0.20065869  0.88535298     0.12060
H290        H  0.01427048  0.22660162  0.78770055     0.09590
H291        H  0.01436260  0.12894942  0.81364471     0.09430
C292        C  0.01421559  0.36643670  0.85219314     0.06470
C293        C  0.01424448  0.33455564  0.86076069    -0.09680
C294        C  0.01429115  0.31134897  0.83743001     0.03970
C295        C  0.01431297  0.31998553  0.80574280    -0.08200
C296        C  0.01429073  0.35167265  0.79710578     0.06460
C297        C  0.01424397  0.37500372  0.82031200    -0.07620
H298        H  0.01421865  0.32788680  0.88535257     0.12060
H299        H  0.01434187  0.30194316  0.78770070     0.09590
H300        H  0.01421779  0.39959550  0.81364275     0.09430
C301        C  0.01421425  0.16210731  0.64786649     0.06470
C302        C  0.01424335  0.15354024  0.67974763    -0.09680
C303        C  0.01429030  0.17687128  0.70295393     0.03970
C304        C  0.01431216  0.20855840  0.69431693    -0.08200
C305        C  0.01428987  0.21719497  0.66262971     0.06460
C306        C  0.01424284  0.19398837  0.63929899    -0.07620
H307        H  0.01421749  0.12894845  0.68641683     0.12060
H308        H  0.01434127  0.22660077  0.71235903     0.09590
H309        H  0.01421663  0.20065725  0.61470713     0.09430
C310        C  0.01436669  0.36643506  0.64786562     0.06470
C311        C  0.01434348  0.37500240  0.67974651    -0.09680
C312        C  0.01430774  0.35167155  0.70295321     0.03970
C313        C  0.01429152  0.31998431  0.69431684    -0.08200
C314        C  0.01430778  0.31134759  0.66262972     0.06460
C315        C  0.01434358  0.33455405  0.63929866    -0.07620
H316        H  0.01436410  0.39959427  0.68641520     0.12060
H317        H  0.01426998  0.30194206  0.71235926     0.09590
H318        H  0.01436427  0.32788508  0.61470689     0.09430
O319        O  0.42487680  0.46309552  0.49978733    -0.83150
O320        O  0.10365544  0.46309882  0.50026435    -0.83310
O321        O  0.01403180  0.42488305  0.94885500    -0.84980
O322        O  0.01451114  0.42488180  0.55120322    -0.83740
O323        O  0.01450945  0.46309668  0.58941877    -0.83330
O324        O  0.01403011  0.46309899  0.91064017    -0.84700
O325        O  0.06544045  0.42488264  0.50026349    -0.83180
O326        O  0.46309250  0.42488122  0.49978541    -0.82760
Zr327      Zr  0.01426628  0.45077769  0.50002943     2.84310
O328        O  0.04609968  0.48243775  0.53186480    -1.04740
O329        O  0.48243072  0.48243734  0.96819639    -1.05470
C330        C  0.43423488  0.43423827  0.49973830     1.09960
C331        C  0.09429811  0.43424084  0.50030819     1.09900
C332        C  0.01398668  0.43424119  0.91999748     1.12890
C333        C  0.01455855  0.43423926  0.58006082     1.10670
H334        H  0.05920245  0.46933601  0.95509252     0.36220
O335        O  0.04610463  0.48243299  0.96819049    -1.25690
H336        H  0.46932880  0.46933090  0.54496747     0.35900
O337        O  0.48242609  0.48242967  0.53186996    -1.27370
O338        O  0.10365308  0.06544687  0.49978713    -0.83140
O339        O  0.42487474  0.06544326  0.50026567    -0.84640
O340        O  0.06543768  0.01451155  0.91064148    -0.83220
O341        O  0.06543918  0.01403157  0.58942018    -0.83270
O342        O  0.46309158  0.01450707  0.58942059    -0.82980
O343        O  0.46308945  0.01403146  0.91064257    -0.82780
O344        O  0.01450612  0.10366142  0.94885708    -0.83160
O345        O  0.01402991  0.10366062  0.55120463    -0.82620
O346        O  0.01450714  0.06544651  0.91064170    -0.83680
O347        O  0.01403094  0.06544496  0.58941981    -0.82840
O348        O  0.10365350  0.01451123  0.94885712    -0.83240
O349        O  0.42487499  0.01403000  0.94885785    -0.82960
O350        O  0.42487554  0.01450668  0.55120524    -0.82610
O351        O  0.10365412  0.01403232  0.55120543    -0.83020
O352        O  0.06543768  0.10366145  0.49978751    -0.83310
O353        O  0.46308976  0.10365951  0.50026502    -0.84650
Zr354      Zr  0.07775865  0.01427229  0.50003077     2.83100
Zr355      Zr  0.45077138  0.01427009  0.50003125     2.83500
Zr356      Zr  0.01426426  0.01427226  0.93653697     2.84090
Zr357      Zr  0.01426526  0.01427097  0.56352410     2.83360
Zr358      Zr  0.01426405  0.07776506  0.50003077     2.84220
O359        O  0.48243001  0.04610582  0.53186582    -1.05220
O360        O  0.04609817  0.04610648  0.96819726    -1.04730
C361        C  0.09429520  0.09430418  0.49973924     1.09930
C362        C  0.43423217  0.09430115  0.50030991     1.12550
C363        C  0.09429543  0.01455732  0.91999944     1.10110
C364        C  0.09429660  0.01398527  0.58006286     1.10470
C365        C  0.43423355  0.01455247  0.58006309     1.10050
C366        C  0.43423221  0.01398395  0.92000047     1.09600
C367        C  0.01455459  0.09430403  0.91999947     1.10030
C368        C  0.01398593  0.09430271  0.58006222     1.09540
H369        H  0.46932654  0.05920813  0.95509250     0.36220
O370        O  0.48242438  0.04611049  0.96819082    -1.26320
H371        H  0.05920323  0.05920917  0.54496774     0.36240
O372        O  0.04610477  0.04611118  0.53187014    -1.27710
C373        C  0.01453209  0.41039214  0.60390772    -0.09930
C374        C  0.01444876  0.39035429  0.62394601    -0.11490
C375        C  0.01430181  0.27842918  0.65498910    -0.09930
C376        C  0.01429763  0.25011343  0.65498887    -0.11490
C377        C  0.01411834  0.13818775  0.62394726    -0.09930
C378        C  0.01402347  0.11814965  0.60390932    -0.11490
C379        C  0.01430197  0.35931250  0.73587152    -0.09930
C380        C  0.01429811  0.35931302  0.76418725    -0.11490
C381        C  0.01411989  0.39035634  0.87611228    -0.09930
C382        C  0.01402480  0.41039445  0.89615020    -0.11490
C383        C  0.01430193  0.16923125  0.76418826    -0.09930
C384        C  0.01429809  0.16923085  0.73587250    -0.11490
C385        C  0.01430209  0.25011466  0.84507063    -0.09930
C386        C  0.01429857  0.27843045  0.84507084    -0.11490
C387        C  0.01444554  0.13818925  0.87611409    -0.09930
C388        C  0.01452805  0.11815127  0.89615242    -0.11490
C389        C  0.39034872  0.01442881  0.62394888    -0.09930
C390        C  0.41038656  0.01451886  0.60391056    -0.11490
C391        C  0.25010686  0.01426014  0.65499322    -0.09930
C392        C  0.27842270  0.01426393  0.65499207    -0.11490
C393        C  0.13818142  0.01410323  0.62394903    -0.09930
C394        C  0.11814361  0.01401600  0.60391031    -0.11490
C395        C  0.16922306  0.01426362  0.76419064    -0.09930
C396        C  0.16922374  0.01425965  0.73587492    -0.11490
C397        C  0.13818045  0.01443246  0.87611529    -0.09930
C398        C  0.11814226  0.01452363  0.89615274    -0.11490
C399        C  0.35930634  0.01426355  0.73587509    -0.09930
C400        C  0.35930442  0.01425982  0.76419085    -0.11490
C401        C  0.27842165  0.01425932  0.84507345    -0.09930
C402        C  0.25010595  0.01426324  0.84507471    -0.11490
C403        C  0.39034657  0.01410191  0.87611595    -0.09930
C404        C  0.41038490  0.01401456  0.89615384    -0.11490
C405        C  0.11814546  0.41039398  0.50027049    -0.09930
C406        C  0.13818329  0.39035574  0.50017641    -0.11490
C407        C  0.16922536  0.25011372  0.99999842    -0.09950
C408        C  0.16922449  0.27842950  0.00000220    -0.11490
C409        C  0.11814216  0.11815134  0.49976608    -0.09930
C410        C  0.13818081  0.13818899  0.49984980    -0.11490
C411        C  0.27842256  0.16922921  0.00000258    -0.09930
C412        C  0.25010682  0.16922988  0.99999865    -0.11490
C413        C  0.39034725  0.13818584  0.50017883    -0.09930
C414        C  0.41038498  0.11814775  0.50027285    -0.11490
C415        C  0.27842444  0.35931035  0.99999851    -0.09930
C416        C  0.25010865  0.35931173  0.00000228    -0.11490
C417        C  0.35930709  0.25011161  0.00000267    -0.09930
C418        C  0.35930683  0.27842736  0.99999874    -0.11490
C419        C  0.39034998  0.39035263  0.49984933    -0.09930
C420        C  0.41038813  0.41039082  0.49976533    -0.11490
C421        C  0.36643039  0.86643320  0.99993237     0.06470
C422        C  0.37499729  0.83455231  0.99995603    -0.09680
C423        C  0.35166616  0.81134567  0.49999280     0.03970
C424        C  0.31997900  0.81998213  0.50000960    -0.08200
C425        C  0.31134271  0.85166933  0.49999271     0.06460
C426        C  0.33454954  0.87500030  0.99995593    -0.07620
H427        H  0.39958907  0.82788357  0.99993491     0.12060
H428        H  0.30193651  0.80193973  0.50003184     0.09590
H429        H  0.32788097  0.89959212  0.99993473     0.09430
C430        C  0.36642839  0.66210548  0.00008422     0.06470
C431        C  0.37499633  0.69398652  0.00005599    -0.09680
C432        C  0.35166591  0.71719317  0.50001010     0.03970
C433        C  0.31997857  0.70855666  0.49998854    -0.08200
C434        C  0.31134118  0.67686956  0.50001006     0.06460
C435        C  0.33454713  0.65353847  0.00005594    -0.07620
H436        H  0.39958830  0.70065536  0.00008156     0.12060
H437        H  0.30193669  0.72659905  0.49996017     0.09590
H438        H  0.32787757  0.62894669  0.00008146     0.09430
C439        C  0.16210083  0.66210795  0.99993257     0.06470
C440        C  0.19398155  0.65354038  0.99995614    -0.09680
C441        C  0.21718866  0.67687109  0.49999274     0.03970
C442        C  0.20855280  0.70855841  0.50000946    -0.08200
C443        C  0.17686577  0.71719531  0.49999266     0.06460
C444        C  0.15353437  0.69398895  0.99995604    -0.07620
H445        H  0.20064980  0.62894846  0.99993511     0.12060
H446        H  0.22659554  0.72660057  0.50003159     0.09590
H447        H  0.12894268  0.70065800  0.99993494     0.09430
C448        C  0.16210241  0.86643594  0.00008236     0.06470
C449        C  0.19398380  0.87500289  0.00005454    -0.09680
C450        C  0.21718985  0.85167176  0.50000948     0.03970
C451        C  0.20855248  0.81998470  0.49998834    -0.08200
C452        C  0.17686522  0.81134811  0.50000945     0.06460
C453        C  0.15353464  0.83455475  0.00005450    -0.07620
H454        H  0.20065337  0.89959466  0.00007980     0.12060
H455        H  0.22659440  0.80194234  0.49996057     0.09590
H456        H  0.12894272  0.82788578  0.00007972     0.09430
C457        C  0.36642717  0.51418864  0.35219654     0.06470
C458        C  0.33454647  0.51421345  0.36076348    -0.09680
C459        C  0.31133975  0.51425311  0.33743240     0.03970
C460        C  0.31997600  0.51427165  0.30574521    -0.08200
C461        C  0.35166321  0.51425350  0.29710899     0.06460
C462        C  0.37499420  0.51421389  0.32031584    -0.07620
H463        H  0.32787792  0.51419073  0.38535526     0.12060
H464        H  0.30193351  0.51429582  0.28770272     0.09590
H465        H  0.39958601  0.51419148  0.31364739     0.09430
C466        C  0.16209994  0.51434096  0.35219648     0.06470
C467        C  0.19398105  0.51431378  0.36076439    -0.09680
C468        C  0.21718744  0.51427040  0.33743389     0.03970
C469        C  0.20855066  0.51425031  0.30574662    -0.08200
C470        C  0.17686355  0.51427067  0.29710927     0.06460
C471        C  0.15353266  0.51431410  0.32031524    -0.07620
H472        H  0.20065012  0.51433799  0.38535634     0.12060
H473        H  0.22659290  0.51422362  0.28770472     0.09590
H474        H  0.12894083  0.51433855  0.31364572     0.09430
C475        C  0.16210078  0.51418959  0.14786897     0.06470
C476        C  0.19398174  0.51421465  0.13930242    -0.09680
C477        C  0.21718844  0.51425375  0.16263372     0.03970
C478        C  0.20855187  0.51427157  0.19432076    -0.08200
C479        C  0.17686463  0.51425337  0.20295673     0.06460
C480        C  0.15353364  0.51421422  0.17974974    -0.07620
H481        H  0.20065051  0.51419248  0.11471073     0.12060
H482        H  0.22659422  0.51429536  0.21236341     0.09590
H483        H  0.12894182  0.51419175  0.18641813     0.09430
C484        C  0.36642931  0.51433894  0.14786858     0.06470
C485        C  0.37499682  0.51431246  0.17974995    -0.09680
C486        C  0.35166606  0.51427029  0.20295630     0.03970
C487        C  0.31997886  0.51425074  0.19431933    -0.08200
C488        C  0.31134160  0.51427056  0.16263224     0.06460
C489        C  0.33454783  0.51431277  0.13930136    -0.07620
H490        H  0.39958870  0.51433615  0.18641926     0.12060
H491        H  0.30193685  0.51422486  0.21236149     0.09590
H492        H  0.32787833  0.51433668  0.11470955     0.09430
C493        C  0.01436476  0.66210859  0.35219435     0.06470
C494        C  0.01434212  0.69398968  0.36076121    -0.09680
C495        C  0.01430730  0.71719616  0.33743009     0.03970
C496        C  0.01429140  0.70855938  0.30574299    -0.08200
C497        C  0.01430734  0.67687214  0.29710663     0.06460
C498        C  0.01434223  0.65354128  0.32031339    -0.07620
H499        H  0.01436241  0.70065870  0.38535297     0.12060
H500        H  0.01427046  0.72660162  0.28770054     0.09590
H501        H  0.01436258  0.62894942  0.31364470     0.09430
C502        C  0.01421557  0.86643671  0.35219312     0.06470
C503        C  0.01424446  0.83455564  0.36076066    -0.09680
C504        C  0.01429113  0.81134898  0.33742998     0.03970
C505        C  0.01431294  0.81998553  0.30574277    -0.08200
C506        C  0.01429070  0.85167265  0.29710575     0.06460
C507        C  0.01424395  0.87500373  0.32031197    -0.07620
H508        H  0.01421863  0.82788681  0.38535254     0.12060
H509        H  0.01434185  0.80194316  0.28770067     0.09590
H510        H  0.01421776  0.89959551  0.31364272     0.09430
C511        C  0.01421425  0.66210731  0.14786648     0.06470
C512        C  0.01424335  0.65354024  0.17974763    -0.09680
C513        C  0.01429029  0.67687128  0.20295392     0.03970
C514        C  0.01431215  0.70855840  0.19431692    -0.08200
C515        C  0.01428986  0.71719496  0.16262970     0.06460
C516        C  0.01424283  0.69398836  0.13929899    -0.07620
H517        H  0.01421750  0.62894845  0.18641683     0.12060
H518        H  0.01434125  0.72660077  0.21235902     0.09590
H519        H  0.01421662  0.70065724  0.11470712     0.09430
C520        C  0.01436667  0.86643505  0.14786559     0.06470
C521        C  0.01434346  0.87500240  0.17974648    -0.09680
C522        C  0.01430771  0.85167155  0.20295319     0.03970
C523        C  0.01429148  0.81998431  0.19431681    -0.08200
C524        C  0.01430775  0.81134759  0.16262970     0.06460
C525        C  0.01434357  0.83455404  0.13929863    -0.07620
H526        H  0.01436408  0.89959426  0.18641517     0.12060
H527        H  0.01426993  0.80194206  0.21235924     0.09590
H528        H  0.01436425  0.82788508  0.11470686     0.09430
O529        O  0.42487680  0.96309552  0.99978733    -0.83150
O530        O  0.10365544  0.96309882  0.00026435    -0.83310
O531        O  0.01403179  0.92488304  0.44885499    -0.84980
O532        O  0.01451114  0.92488180  0.05120321    -0.83740
O533        O  0.01450945  0.96309668  0.08941876    -0.83330
O534        O  0.01403010  0.96309899  0.41064016    -0.84700
O535        O  0.06544045  0.92488264  0.00026348    -0.83180
O536        O  0.46309251  0.92488123  0.99978541    -0.82760
Zr537      Zr  0.01426627  0.95077770  0.00002943     2.84310
O538        O  0.04609968  0.98243776  0.03186481    -1.04740
O539        O  0.48243073  0.98243734  0.46819639    -1.05470
C540        C  0.43423488  0.93423826  0.99973830     1.09960
C541        C  0.09429811  0.93424084  0.00030818     1.09900
C542        C  0.01398667  0.93424118  0.41999747     1.12890
C543        C  0.01455855  0.93423926  0.08006081     1.10670
H544        H  0.05920244  0.96933601  0.45509252     0.36220
O545        O  0.04610462  0.98243298  0.46819048    -1.25690
H546        H  0.46932880  0.96933090  0.04496747     0.35900
O547        O  0.48242609  0.98242967  0.03186996    -1.27370
O548        O  0.10365308  0.56544687  0.99978714    -0.83140
O549        O  0.42487474  0.56544325  0.00026568    -0.84640
O550        O  0.06543769  0.51451155  0.41064149    -0.83220
O551        O  0.06543918  0.51403156  0.08942018    -0.83270
O552        O  0.46309159  0.51450707  0.08942059    -0.82980
O553        O  0.46308945  0.51403146  0.41064257    -0.82780
O554        O  0.01450612  0.60366142  0.44885707    -0.83160
O555        O  0.01402991  0.60366062  0.05120463    -0.82620
O556        O  0.01450714  0.56544651  0.41064170    -0.83680
O557        O  0.01403094  0.56544496  0.08941981    -0.82840
O558        O  0.10365351  0.51451122  0.44885713    -0.83240
O559        O  0.42487499  0.51403000  0.44885785    -0.82960
O560        O  0.42487554  0.51450667  0.05120525    -0.82610
O561        O  0.10365412  0.51403232  0.05120544    -0.83020
O562        O  0.06543768  0.60366146  0.99978753    -0.83310
O563        O  0.46308975  0.60365951  0.00026503    -0.84650
Zr564      Zr  0.07775865  0.51427230  0.00003078     2.83100
Zr565      Zr  0.45077138  0.51427009  0.00003126     2.83500
Zr566      Zr  0.01426427  0.51427226  0.43653697     2.84090
Zr567      Zr  0.01426526  0.51427097  0.06352410     2.83360
Zr568      Zr  0.01426405  0.57776506  0.00003077     2.84220
O569        O  0.48243001  0.54610582  0.03186583    -1.05220
O570        O  0.04609818  0.54610647  0.46819726    -1.04730
C571        C  0.09429520  0.59430418  0.99973926     1.09930
C572        C  0.43423217  0.59430115  0.00030992     1.12550
C573        C  0.09429544  0.51455731  0.41999944     1.10110
C574        C  0.09429660  0.51398526  0.08006286     1.10470
C575        C  0.43423355  0.51455247  0.08006310     1.10050
C576        C  0.43423221  0.51398395  0.42000046     1.09600
C577        C  0.01455459  0.59430402  0.41999946     1.10030
C578        C  0.01398593  0.59430271  0.08006223     1.09540
H579        H  0.46932654  0.55920813  0.45509250     0.36220
O580        O  0.48242437  0.54611049  0.46819082    -1.26320
H581        H  0.05920323  0.55920917  0.04496775     0.36240
O582        O  0.04610477  0.54611118  0.03187014    -1.27710
C583        C  0.01453209  0.91039214  0.10390770    -0.09930
C584        C  0.01444875  0.89035428  0.12394599    -0.11490
C585        C  0.01430178  0.77842918  0.15498908    -0.09930
C586        C  0.01429761  0.75011343  0.15498886    -0.11490
C587        C  0.01411835  0.63818775  0.12394726    -0.09930
C588        C  0.01402347  0.61814964  0.10390933    -0.11490
C589        C  0.01430194  0.85931250  0.23587149    -0.09930
C590        C  0.01429808  0.85931303  0.26418722    -0.11490
C591        C  0.01411987  0.89035634  0.37611226    -0.09930
C592        C  0.01402478  0.91039445  0.39615019    -0.11490
C593        C  0.01430192  0.66923125  0.26418825    -0.09930
C594        C  0.01429808  0.66923085  0.23587249    -0.11490
C595        C  0.01430207  0.75011466  0.34507061    -0.09930
C596        C  0.01429855  0.77843045  0.34507081    -0.11490
C597        C  0.01444553  0.63818925  0.37611409    -0.09930
C598        C  0.01452804  0.61815127  0.39615242    -0.11490
C599        C  0.39034872  0.51442880  0.12394888    -0.09930
C600        C  0.41038656  0.51451885  0.10391056    -0.11490
C601        C  0.25010686  0.51426013  0.15499321    -0.09930
C602        C  0.27842270  0.51426392  0.15499205    -0.11490
C603        C  0.13818141  0.51410322  0.12394904    -0.09930
C604        C  0.11814361  0.51401599  0.10391032    -0.11490
C605        C  0.16922306  0.51426361  0.26419064    -0.09930
C606        C  0.16922375  0.51425964  0.23587492    -0.11490
C607        C  0.13818046  0.51443246  0.37611529    -0.09930
C608        C  0.11814227  0.51452363  0.39615274    -0.11490
C609        C  0.35930633  0.51426357  0.23587508    -0.09930
C610        C  0.35930442  0.51425983  0.26419084    -0.11490
C611        C  0.27842165  0.51425932  0.34507345    -0.09930
C612        C  0.25010595  0.51426324  0.34507470    -0.11490
C613        C  0.39034658  0.51410191  0.37611594    -0.09930
C614        C  0.41038490  0.51401456  0.39615384    -0.11490
C615        C  0.11814545  0.91039398  0.00027048    -0.09930
C616        C  0.13818329  0.89035575  0.00017639    -0.11490
C617        C  0.16922535  0.75011371  0.49999844    -0.09950
C618        C  0.16922448  0.77842949  0.50000222    -0.11490
C619        C  0.11814216  0.61815134  0.99976611    -0.09930
C620        C  0.13818081  0.63818900  0.99984982    -0.11490
C621        C  0.27842255  0.66922921  0.50000258    -0.09930
C622        C  0.25010682  0.66922988  0.49999864    -0.11490
C623        C  0.39034725  0.63818584  0.00017883    -0.09930
C624        C  0.41038498  0.61814774  0.00027285    -0.11490
C625        C  0.27842443  0.85931035  0.49999851    -0.09930
C626        C  0.25010864  0.85931173  0.50000228    -0.11490
C627        C  0.35930709  0.75011162  0.50000266    -0.09930
C628        C  0.35930682  0.77842736  0.49999873    -0.11490
C629        C  0.39034999  0.89035263  0.99984933    -0.09930
C630        C  0.41038814  0.91039081  0.99976533    -0.11490
C631        C  0.36643039  0.86643320  0.49993237     0.06470
C632        C  0.37499730  0.83455231  0.49995602    -0.09680
C633        C  0.35166615  0.81134566  0.99999281     0.03970
C634        C  0.31997899  0.81998213  0.00000961    -0.08200
C635        C  0.31134270  0.85166933  0.99999271     0.06460
C636        C  0.33454954  0.87500030  0.49995592    -0.07620
H637        H  0.39958908  0.82788358  0.49993491     0.12060
H638        H  0.30193650  0.80193973  0.00003185     0.09590
H639        H  0.32788097  0.89959212  0.49993473     0.09430
C640        C  0.36642839  0.66210548  0.50008422     0.06470
C641        C  0.37499634  0.69398653  0.50005599    -0.09680
C642        C  0.35166590  0.71719316  0.00001011     0.03970
C643        C  0.31997856  0.70855665  0.99998854    -0.08200
C644        C  0.31134117  0.67686955  0.00001006     0.06460
C645        C  0.33454713  0.65353848  0.50005594    -0.07620
H646        H  0.39958831  0.70065537  0.50008156     0.12060
H647        H  0.30193668  0.72659904  0.99996018     0.09590
H648        H  0.32787758  0.62894670  0.50008147     0.09430
C649        C  0.16210084  0.66210795  0.49993256     0.06470
C650        C  0.19398156  0.65354038  0.49995612    -0.09680
C651        C  0.21718865  0.67687109  0.99999274     0.03970
C652        C  0.20855280  0.70855841  0.00000945    -0.08200
C653        C  0.17686577  0.71719531  0.99999265     0.06460
C654        C  0.15353438  0.69398895  0.49995604    -0.07620
H655        H  0.20064980  0.62894846  0.49993509     0.12060
H656        H  0.22659553  0.72660057  0.00003157     0.09590
H657        H  0.12894269  0.70065800  0.49993495     0.09430
C658        C  0.16210241  0.86643595  0.50008237     0.06470
C659        C  0.19398380  0.87500289  0.50005455    -0.09680
C660        C  0.21718984  0.85167176  0.00000947     0.03970
C661        C  0.20855247  0.81998470  0.99998833    -0.08200
C662        C  0.17686521  0.81134811  0.00000943     0.06460
C663        C  0.15353465  0.83455475  0.50005452    -0.07620
H664        H  0.20065338  0.89959466  0.50007980     0.12060
H665        H  0.22659439  0.80194234  0.99996056     0.09590
H666        H  0.12894273  0.82788578  0.50007975     0.09430
C667        C  0.36642715  0.51418864  0.85219656     0.06470
C668        C  0.33454644  0.51421346  0.86076350    -0.09680
C669        C  0.31133973  0.51425311  0.83743242     0.03970
C670        C  0.31997598  0.51427166  0.80574523    -0.08200
C671        C  0.35166319  0.51425350  0.79710901     0.06460
C672        C  0.37499418  0.51421389  0.82031586    -0.07620
H673        H  0.32787790  0.51419073  0.88535527     0.12060
H674        H  0.30193350  0.51429582  0.78770273     0.09590
H675        H  0.39958599  0.51419148  0.81364742     0.09430
C676        C  0.16209992  0.51434097  0.85219648     0.06470
C677        C  0.19398103  0.51431378  0.86076439    -0.09680
C678        C  0.21718742  0.51427040  0.83743389     0.03970
C679        C  0.20855065  0.51425031  0.80574662    -0.08200
C680        C  0.17686353  0.51427068  0.79710927     0.06460
C681        C  0.15353265  0.51431410  0.82031524    -0.07620
H682        H  0.20065010  0.51433799  0.88535633     0.12060
H683        H  0.22659288  0.51422363  0.78770472     0.09590
H684        H  0.12894082  0.51433855  0.81364572     0.09430
C685        C  0.16210079  0.51418960  0.64786897     0.06470
C686        C  0.19398175  0.51421465  0.63930242    -0.09680
C687        C  0.21718844  0.51425375  0.66263372     0.03970
C688        C  0.20855187  0.51427157  0.69432076    -0.08200
C689        C  0.17686463  0.51425338  0.70295673     0.06460
C690        C  0.15353365  0.51421423  0.67974974    -0.07620
H691        H  0.20065053  0.51419249  0.61471073     0.12060
H692        H  0.22659422  0.51429536  0.71236342     0.09590
H693        H  0.12894182  0.51419176  0.68641812     0.09430
C694        C  0.36642931  0.51433894  0.64786859     0.06470
C695        C  0.37499683  0.51431246  0.67974996    -0.09680
C696        C  0.35166607  0.51427029  0.70295632     0.03970
C697        C  0.31997886  0.51425074  0.69431935    -0.08200
C698        C  0.31134160  0.51427056  0.66263226     0.06460
C699        C  0.33454784  0.51431277  0.63930137    -0.07620
H700        H  0.39958870  0.51433615  0.68641927     0.12060
H701        H  0.30193686  0.51422486  0.71236150     0.09590
H702        H  0.32787833  0.51433669  0.61470957     0.09430
C703        C  0.01436479  0.66210859  0.85219436     0.06470
C704        C  0.01434215  0.69398967  0.86076122    -0.09680
C705        C  0.01430732  0.71719616  0.83743011     0.03970
C706        C  0.01429142  0.70855938  0.80574300    -0.08200
C707        C  0.01430737  0.67687214  0.79710663     0.06460
C708        C  0.01434227  0.65354128  0.82031340    -0.07620
H709        H  0.01436243  0.70065869  0.88535298     0.12060
H710        H  0.01427048  0.72660162  0.78770055     0.09590
H711        H  0.01436262  0.62894942  0.81364470     0.09430
C712        C  0.01421556  0.86643670  0.85219314     0.06470
C713        C  0.01424446  0.83455564  0.86076069    -0.09680
C714        C  0.01429113  0.81134897  0.83743001     0.03970
C715        C  0.01431295  0.81998553  0.80574280    -0.08200
C716        C  0.01429071  0.85167265  0.79710578     0.06460
C717        C  0.01424395  0.87500372  0.82031200    -0.07620
H718        H  0.01421863  0.82788680  0.88535257     0.12060
H719        H  0.01434186  0.80194316  0.78770070     0.09590
H720        H  0.01421776  0.89959550  0.81364275     0.09430
C721        C  0.01421427  0.66210732  0.64786649     0.06470
C722        C  0.01424337  0.65354024  0.67974763    -0.09680
C723        C  0.01429032  0.67687128  0.70295393     0.03970
C724        C  0.01431218  0.70855840  0.69431693    -0.08200
C725        C  0.01428989  0.71719497  0.66262971     0.06460
C726        C  0.01424286  0.69398837  0.63929899    -0.07620
H727        H  0.01421752  0.62894845  0.68641683     0.12060
H728        H  0.01434129  0.72660077  0.71235903     0.09590
H729        H  0.01421665  0.70065725  0.61470713     0.09430
C730        C  0.01436670  0.86643506  0.64786562     0.06470
C731        C  0.01434348  0.87500241  0.67974651    -0.09680
C732        C  0.01430773  0.85167156  0.70295321     0.03970
C733        C  0.01429151  0.81998432  0.69431684    -0.08200
C734        C  0.01430778  0.81134759  0.66262972     0.06460
C735        C  0.01434360  0.83455405  0.63929866    -0.07620
H736        H  0.01436410  0.89959427  0.68641520     0.12060
H737        H  0.01426996  0.80194206  0.71235927     0.09590
H738        H  0.01436429  0.82788509  0.61470689     0.09430
O739        O  0.42487680  0.96309553  0.49978733    -0.83150
O740        O  0.10365544  0.96309883  0.50026435    -0.83310
O741        O  0.01403179  0.92488305  0.94885500    -0.84980
O742        O  0.01451115  0.92488180  0.55120322    -0.83740
O743        O  0.01450945  0.96309668  0.58941876    -0.83330
O744        O  0.01403009  0.96309899  0.91064017    -0.84700
O745        O  0.06544045  0.92488264  0.50026348    -0.83180
O746        O  0.46309251  0.92488123  0.49978541    -0.82760
Zr747      Zr  0.01426627  0.95077769  0.50002943     2.84310
O748        O  0.04609967  0.98243775  0.53186480    -1.04740
O749        O  0.48243072  0.98243734  0.96819639    -1.05470
C750        C  0.43423488  0.93423827  0.49973830     1.09960
C751        C  0.09429811  0.93424084  0.50030819     1.09900
C752        C  0.01398666  0.93424119  0.91999748     1.12890
C753        C  0.01455856  0.93423926  0.58006082     1.10670
H754        H  0.05920244  0.96933601  0.95509252     0.36220
O755        O  0.04610463  0.98243299  0.96819049    -1.25690
H756        H  0.46932880  0.96933091  0.54496746     0.35900
O757        O  0.48242609  0.98242967  0.53186996    -1.27370
O758        O  0.10365308  0.56544687  0.49978713    -0.83140
O759        O  0.42487474  0.56544326  0.50026568    -0.84640
O760        O  0.06543768  0.51451155  0.91064149    -0.83220
O761        O  0.06543919  0.51403156  0.58942018    -0.83270
O762        O  0.46309158  0.51450707  0.58942059    -0.82980
O763        O  0.46308944  0.51403147  0.91064258    -0.82780
O764        O  0.01450613  0.60366142  0.94885708    -0.83160
O765        O  0.01402992  0.60366062  0.55120463    -0.82620
O766        O  0.01450715  0.56544651  0.91064170    -0.83680
O767        O  0.01403095  0.56544496  0.58941981    -0.82840
O768        O  0.10365350  0.51451123  0.94885713    -0.83240
O769        O  0.42487499  0.51403000  0.94885786    -0.82960
O770        O  0.42487554  0.51450667  0.55120525    -0.82610
O771        O  0.10365413  0.51403232  0.55120543    -0.83020
O772        O  0.06543769  0.60366145  0.49978752    -0.83310
O773        O  0.46308976  0.60365951  0.50026502    -0.84650
Zr774      Zr  0.07775865  0.51427229  0.50003078     2.83100
Zr775      Zr  0.45077138  0.51427009  0.50003125     2.83500
Zr776      Zr  0.01426426  0.51427226  0.93653697     2.84090
Zr777      Zr  0.01426527  0.51427097  0.56352410     2.83360
Zr778      Zr  0.01426405  0.57776506  0.50003077     2.84220
O779        O  0.48243001  0.54610582  0.53186582    -1.05220
O780        O  0.04609817  0.54610648  0.96819726    -1.04730
C781        C  0.09429521  0.59430418  0.49973924     1.09930
C782        C  0.43423217  0.59430115  0.50030992     1.12550
C783        C  0.09429543  0.51455732  0.91999944     1.10110
C784        C  0.09429661  0.51398527  0.58006286     1.10470
C785        C  0.43423355  0.51455247  0.58006310     1.10050
C786        C  0.43423220  0.51398395  0.92000047     1.09600
C787        C  0.01455460  0.59430403  0.91999947     1.10030
C788        C  0.01398594  0.59430271  0.58006223     1.09540
H789        H  0.46932654  0.55920813  0.95509250     0.36220
O790        O  0.48242437  0.54611049  0.96819082    -1.26320
H791        H  0.05920323  0.55920917  0.54496774     0.36240
O792        O  0.04610477  0.54611118  0.53187014    -1.27710
C793        C  0.01453211  0.91039215  0.60390772    -0.09930
C794        C  0.01444878  0.89035429  0.62394601    -0.11490
C795        C  0.01430182  0.77842919  0.65498910    -0.09930
C796        C  0.01429764  0.75011343  0.65498888    -0.11490
C797        C  0.01411837  0.63818775  0.62394726    -0.09930
C798        C  0.01402349  0.61814965  0.60390932    -0.11490
C799        C  0.01430195  0.85931251  0.73587152    -0.09930
C800        C  0.01429809  0.85931303  0.76418725    -0.11490
C801        C  0.01411986  0.89035634  0.87611228    -0.09930
C802        C  0.01402477  0.91039445  0.89615020    -0.11490
C803        C  0.01430195  0.66923125  0.76418826    -0.09930
C804        C  0.01429811  0.66923085  0.73587250    -0.11490
C805        C  0.01430209  0.75011466  0.84507063    -0.09930
C806        C  0.01429856  0.77843045  0.84507083    -0.11490
C807        C  0.01444556  0.63818925  0.87611409    -0.09930
C808        C  0.01452806  0.61815127  0.89615242    -0.11490
C809        C  0.39034872  0.51442880  0.62394889    -0.09930
C810        C  0.41038656  0.51451886  0.60391056    -0.11490
C811        C  0.25010687  0.51426014  0.65499322    -0.09930
C812        C  0.27842271  0.51426393  0.65499207    -0.11490
C813        C  0.13818143  0.51410322  0.62394903    -0.09930
C814        C  0.11814362  0.51401599  0.60391031    -0.11490
C815        C  0.16922305  0.51426362  0.76419064    -0.09930
C816        C  0.16922374  0.51425964  0.73587491    -0.11490
C817        C  0.13818044  0.51443246  0.87611529    -0.09930
C818        C  0.11814225  0.51452363  0.89615274    -0.11490
C819        C  0.35930634  0.51426357  0.73587509    -0.09930
C820        C  0.35930441  0.51425984  0.76419086    -0.11490
C821        C  0.27842163  0.51425932  0.84507345    -0.09930
C822        C  0.25010593  0.51426324  0.84507471    -0.11490
C823        C  0.39034656  0.51410192  0.87611596    -0.09930
C824        C  0.41038488  0.51401456  0.89615385    -0.11490
C825        C  0.11814546  0.91039399  0.50027048    -0.09930
C826        C  0.13818330  0.89035575  0.50017641    -0.11490
C827        C  0.16922534  0.75011371  0.99999842    -0.09950
C828        C  0.16922448  0.77842949  0.00000220    -0.11490
C829        C  0.11814217  0.61815134  0.49976609    -0.09930
C830        C  0.13818081  0.63818900  0.49984980    -0.11490
C831        C  0.27842255  0.66922920  0.00000258    -0.09930
C832        C  0.25010681  0.66922988  0.99999865    -0.11490
C833        C  0.39034726  0.63818584  0.50017883    -0.09930
C834        C  0.41038498  0.61814775  0.50027285    -0.11490
C835        C  0.27842442  0.85931035  0.99999851    -0.09930
C836        C  0.25010864  0.85931173  0.00000228    -0.11490
C837        C  0.35930708  0.75011162  0.00000267    -0.09930
C838        C  0.35930681  0.77842736  0.99999874    -0.11490
C839        C  0.39034999  0.89035264  0.49984933    -0.09930
C840        C  0.41038813  0.91039082  0.49976533    -0.11490
C841        C  0.86643040  0.36643320  0.99993237     0.06470
C842        C  0.87499731  0.33455231  0.99995603    -0.09680
C843        C  0.85166616  0.31134567  0.49999280     0.03970
C844        C  0.81997900  0.31998213  0.50000960    -0.08200
C845        C  0.81134270  0.35166933  0.49999271     0.06460
C846        C  0.83454955  0.37500029  0.99995593    -0.07620
H847        H  0.89958909  0.32788357  0.99993491     0.12060
H848        H  0.80193650  0.30193973  0.50003184     0.09590
H849        H  0.82788098  0.39959212  0.99993473     0.09430
C850        C  0.86642840  0.16210548  0.00008422     0.06470
C851        C  0.87499634  0.19398652  0.00005599    -0.09680
C852        C  0.85166591  0.21719317  0.50001010     0.03970
C853        C  0.81997857  0.20855666  0.49998854    -0.08200
C854        C  0.81134118  0.17686956  0.50001006     0.06460
C855        C  0.83454713  0.15353848  0.00005593    -0.07620
H856        H  0.89958831  0.20065536  0.00008156     0.12060
H857        H  0.80193669  0.22659905  0.49996017     0.09590
H858        H  0.82787758  0.12894670  0.00008146     0.09430
C859        C  0.66210084  0.16210796  0.99993257     0.06470
C860        C  0.69398156  0.15354038  0.99995614    -0.09680
C861        C  0.71718866  0.17687108  0.49999274     0.03970
C862        C  0.70855280  0.20855841  0.50000946    -0.08200
C863        C  0.67686577  0.21719530  0.49999266     0.06460
C864        C  0.65353438  0.19398895  0.99995604    -0.07620
H865        H  0.70064981  0.12894847  0.99993511     0.12060
H866        H  0.72659553  0.22660057  0.50003159     0.09590
H867        H  0.62894269  0.20065800  0.99993494     0.09430
C868        C  0.66210242  0.36643595  0.00008236     0.06470
C869        C  0.69398381  0.37500290  0.00005454    -0.09680
C870        C  0.71718984  0.35167175  0.50000948     0.03970
C871        C  0.70855247  0.31998470  0.49998834    -0.08200
C872        C  0.67686521  0.31134811  0.50000945     0.06460
C873        C  0.65353466  0.33455476  0.00005450    -0.07620
H874        H  0.70065340  0.39959466  0.00007980     0.12060
H875        H  0.72659439  0.30194233  0.49996057     0.09590
H876        H  0.62894273  0.32788579  0.00007972     0.09430
C877        C  0.86642716  0.01418864  0.35219654     0.06470
C878        C  0.83454645  0.01421346  0.36076349    -0.09680
C879        C  0.81133973  0.01425311  0.33743241     0.03970
C880        C  0.81997599  0.01427166  0.30574522    -0.08200
C881        C  0.85166320  0.01425350  0.29710900     0.06460
C882        C  0.87499419  0.01421389  0.32031585    -0.07620
H883        H  0.82787790  0.01419073  0.38535526     0.12060
H884        H  0.80193350  0.01429582  0.28770272     0.09590
H885        H  0.89958599  0.01419148  0.31364740     0.09430
C886        C  0.66209992  0.01434096  0.35219648     0.06470
C887        C  0.69398104  0.01431378  0.36076439    -0.09680
C888        C  0.71718742  0.01427040  0.33743389     0.03970
C889        C  0.70855064  0.01425031  0.30574662    -0.08200
C890        C  0.67686353  0.01427068  0.29710927     0.06460
C891        C  0.65353265  0.01431410  0.32031524    -0.07620
H892        H  0.70065011  0.01433799  0.38535633     0.12060
H893        H  0.72659288  0.01422363  0.28770472     0.09590
H894        H  0.62894082  0.01433855  0.31364572     0.09430
C895        C  0.66210078  0.01418960  0.14786897     0.06470
C896        C  0.69398174  0.01421465  0.13930242    -0.09680
C897        C  0.71718843  0.01425375  0.16263372     0.03970
C898        C  0.70855186  0.01427157  0.19432076    -0.08200
C899        C  0.67686463  0.01425338  0.20295673     0.06460
C900        C  0.65353364  0.01421423  0.17974974    -0.07620
H901        H  0.70065052  0.01419249  0.11471073     0.12060
H902        H  0.72659421  0.01429536  0.21236342     0.09590
H903        H  0.62894181  0.01419176  0.18641812     0.09430
C904        C  0.86642930  0.01433894  0.14786858     0.06470
C905        C  0.87499682  0.01431246  0.17974995    -0.09680
C906        C  0.85166606  0.01427029  0.20295631     0.03970
C907        C  0.81997886  0.01425074  0.19431934    -0.08200
C908        C  0.81134159  0.01427056  0.16263225     0.06460
C909        C  0.83454783  0.01431277  0.13930136    -0.07620
H910        H  0.89958870  0.01433615  0.18641926     0.12060
H911        H  0.80193685  0.01422486  0.21236149     0.09590
H912        H  0.82787832  0.01433669  0.11470956     0.09430
C913        C  0.51436477  0.16210859  0.35219435     0.06470
C914        C  0.51434213  0.19398968  0.36076122    -0.09680
C915        C  0.51430728  0.21719616  0.33743009     0.03970
C916        C  0.51429138  0.20855938  0.30574299    -0.08200
C917        C  0.51430734  0.17687214  0.29710663     0.06460
C918        C  0.51434225  0.15354128  0.32031340    -0.07620
H919        H  0.51436242  0.20065870  0.38535297     0.12060
H920        H  0.51427043  0.22660162  0.28770054     0.09590
H921        H  0.51436261  0.12894942  0.31364470     0.09430
C922        C  0.51421556  0.36643671  0.35219312     0.06470
C923        C  0.51424444  0.33455565  0.36076066    -0.09680
C924        C  0.51429111  0.31134898  0.33742998     0.03970
C925        C  0.51431292  0.31998554  0.30574277    -0.08200
C926        C  0.51429069  0.35167265  0.29710575     0.06460
C927        C  0.51424394  0.37500373  0.32031198    -0.07620
H928        H  0.51421861  0.32788681  0.38535254     0.12060
H929        H  0.51434182  0.30194317  0.28770067     0.09590
H930        H  0.51421776  0.39959551  0.31364272     0.09430
C931        C  0.51421427  0.16210731  0.14786648     0.06470
C932        C  0.51424336  0.15354024  0.17974763    -0.09680
C933        C  0.51429030  0.17687128  0.20295392     0.03970
C934        C  0.51431216  0.20855840  0.19431692    -0.08200
C935        C  0.51428989  0.21719497  0.16262970     0.06460
C936        C  0.51424286  0.19398836  0.13929899    -0.07620
H937        H  0.51421750  0.12894845  0.18641683     0.12060
H938        H  0.51434127  0.22660077  0.21235902     0.09590
H939        H  0.51421666  0.20065724  0.11470712     0.09430
C940        C  0.51436668  0.36643505  0.14786559     0.06470
C941        C  0.51434346  0.37500240  0.17974648    -0.09680
C942        C  0.51430771  0.35167155  0.20295319     0.03970
C943        C  0.51429150  0.31998431  0.19431681    -0.08200
C944        C  0.51430778  0.31134759  0.16262970     0.06460
C945        C  0.51434358  0.33455405  0.13929863    -0.07620
H946        H  0.51436407  0.39959426  0.18641517     0.12060
H947        H  0.51426996  0.30194206  0.21235924     0.09590
H948        H  0.51436428  0.32788508  0.11470686     0.09430
O949        O  0.92487681  0.46309552  0.99978733    -0.83150
O950        O  0.60365545  0.46309883  0.00026434    -0.83310
O951        O  0.51403179  0.42488305  0.44885500    -0.84980
O952        O  0.51451114  0.42488180  0.05120321    -0.83740
O953        O  0.51450945  0.46309668  0.08941876    -0.83330
O954        O  0.51403010  0.46309899  0.41064017    -0.84700
O955        O  0.56544046  0.42488265  0.00026348    -0.83180
O956        O  0.96309251  0.42488123  0.99978540    -0.82760
Zr957      Zr  0.51426628  0.45077770  0.00002943     2.84310
O958        O  0.54609968  0.48243776  0.03186480    -1.04740
O959        O  0.98243073  0.48243734  0.46819639    -1.05470
C960        C  0.93423489  0.43423827  0.99973829     1.09960
C961        C  0.59429812  0.43424085  0.00030818     1.09900
C962        C  0.51398667  0.43424118  0.41999748     1.12890
C963        C  0.51455855  0.43423926  0.08006081     1.10670
H964        H  0.55920244  0.46933600  0.45509252     0.36220
O965        O  0.54610462  0.48243298  0.46819049    -1.25690
H966        H  0.96932880  0.46933090  0.04496746     0.35900
O967        O  0.98242609  0.48242967  0.03186996    -1.27370
O968        O  0.60365308  0.06544688  0.99978714    -0.83140
O969        O  0.92487474  0.06544325  0.00026567    -0.84640
O970        O  0.56543768  0.01451154  0.41064148    -0.83220
O971        O  0.56543918  0.01403156  0.08942018    -0.83270
O972        O  0.96309158  0.01450707  0.08942059    -0.82980
O973        O  0.96308945  0.01403146  0.41064257    -0.82780
O974        O  0.51450614  0.10366142  0.44885707    -0.83160
O975        O  0.51402992  0.10366062  0.05120463    -0.82620
O976        O  0.51450715  0.06544651  0.41064170    -0.83680
O977        O  0.51403095  0.06544496  0.08941981    -0.82840
O978        O  0.60365350  0.01451122  0.44885712    -0.83240
O979        O  0.92487499  0.01403000  0.44885785    -0.82960
O980        O  0.92487553  0.01450667  0.05120524    -0.82610
O981        O  0.60365412  0.01403232  0.05120543    -0.83020
O982        O  0.56543768  0.10366146  0.99978753    -0.83310
O983        O  0.96308975  0.10365951  0.00026503    -0.84650
Zr984      Zr  0.57775865  0.01427230  0.00003078     2.83100
Zr985      Zr  0.95077138  0.01427009  0.00003125     2.83500
Zr986      Zr  0.51426426  0.01427226  0.43653697     2.84090
Zr987      Zr  0.51426526  0.01427097  0.06352410     2.83360
Zr988      Zr  0.51426405  0.07776506  0.00003077     2.84220
O989        O  0.98243001  0.04610582  0.03186582    -1.05220
O990        O  0.54609818  0.04610647  0.46819726    -1.04730
C991        C  0.59429520  0.09430419  0.99973926     1.09930
C992        C  0.93423217  0.09430115  0.00030992     1.12550
C993        C  0.59429544  0.01455731  0.41999944     1.10110
C994        C  0.59429660  0.01398527  0.08006286     1.10470
C995        C  0.93423355  0.01455247  0.08006310     1.10050
C996        C  0.93423220  0.01398395  0.42000046     1.09600
C997        C  0.51455461  0.09430403  0.41999946     1.10030
C998        C  0.51398594  0.09430271  0.08006223     1.09540
H999        H  0.96932654  0.05920812  0.45509249     0.36220
O1000       O  0.98242437  0.04611048  0.46819081    -1.26320
H1001       H  0.55920323  0.05920917  0.04496774     0.36240
O1002       O  0.54610477  0.04611118  0.03187014    -1.27710
C1003       C  0.51453209  0.41039214  0.10390770    -0.09930
C1004       C  0.51444875  0.39035428  0.12394599    -0.11490
C1005       C  0.51430181  0.27842918  0.15498908    -0.09930
C1006       C  0.51429764  0.25011343  0.15498886    -0.11490
C1007       C  0.51411837  0.13818775  0.12394726    -0.09930
C1008       C  0.51402349  0.11814964  0.10390933    -0.11490
C1009       C  0.51430193  0.35931250  0.23587149    -0.09930
C1010       C  0.51429807  0.35931303  0.26418722    -0.11490
C1011       C  0.51411986  0.39035635  0.37611226    -0.09930
C1012       C  0.51402477  0.41039445  0.39615019    -0.11490
C1013       C  0.51430192  0.16923125  0.26418825    -0.09930
C1014       C  0.51429808  0.16923085  0.23587249    -0.11490
C1015       C  0.51430205  0.25011466  0.34507061    -0.09930
C1016       C  0.51429853  0.27843046  0.34507081    -0.11490
C1017       C  0.51444556  0.13818925  0.37611409    -0.09930
C1018       C  0.51452807  0.11815127  0.39615242    -0.11490
C1019       C  0.89034871  0.01442880  0.12394888    -0.09930
C1020       C  0.91038655  0.01451886  0.10391056    -0.11490
C1021       C  0.75010686  0.01426014  0.15499322    -0.09930
C1022       C  0.77842270  0.01426393  0.15499206    -0.11490
C1023       C  0.63818142  0.01410322  0.12394903    -0.09930
C1024       C  0.61814361  0.01401599  0.10391031    -0.11490
C1025       C  0.66922304  0.01426362  0.26419064    -0.09930
C1026       C  0.66922373  0.01425964  0.23587491    -0.11490
C1027       C  0.63818045  0.01443245  0.37611529    -0.09930
C1028       C  0.61814226  0.01452363  0.39615274    -0.11490
C1029       C  0.85930633  0.01426357  0.23587508    -0.09930
C1030       C  0.85930441  0.01425984  0.26419085    -0.11490
C1031       C  0.77842164  0.01425932  0.34507344    -0.09930
C1032       C  0.75010594  0.01426324  0.34507470    -0.11490
C1033       C  0.89034657  0.01410192  0.37611595    -0.09930
C1034       C  0.91038489  0.01401456  0.39615384    -0.11490
C1035       C  0.61814547  0.41039399  0.00027047    -0.09930
C1036       C  0.63818330  0.39035576  0.00017639    -0.11490
C1037       C  0.66922535  0.25011371  0.49999844    -0.09950
C1038       C  0.66922448  0.27842949  0.50000222    -0.11490
C1039       C  0.61814217  0.11815135  0.99976610    -0.09930
C1040       C  0.63818081  0.13818900  0.99984982    -0.11490
C1041       C  0.77842256  0.16922921  0.50000258    -0.09930
C1042       C  0.75010682  0.16922988  0.49999864    -0.11490
C1043       C  0.89034726  0.13818584  0.00017883    -0.09930
C1044       C  0.91038498  0.11814774  0.00027285    -0.11490
C1045       C  0.77842442  0.35931035  0.49999851    -0.09930
C1046       C  0.75010864  0.35931172  0.50000228    -0.11490
C1047       C  0.85930709  0.25011162  0.50000266    -0.09930
C1048       C  0.85930682  0.27842736  0.49999873    -0.11490
C1049       C  0.89035000  0.39035263  0.99984932    -0.09930
C1050       C  0.91038814  0.41039082  0.99976532    -0.11490
C1051       C  0.86643039  0.36643320  0.49993237     0.06470
C1052       C  0.87499730  0.33455231  0.49995602    -0.09680
C1053       C  0.85166617  0.31134566  0.99999281     0.03970
C1054       C  0.81997901  0.31998212  0.00000961    -0.08200
C1055       C  0.81134272  0.35166932  0.99999271     0.06460
C1056       C  0.83454954  0.37500030  0.49995592    -0.07620
H1057       H  0.89958907  0.32788358  0.49993491     0.12060
H1058       H  0.80193652  0.30193972  0.00003186     0.09590
H1059       H  0.82788097  0.39959212  0.49993473     0.09430
C1060       C  0.86642839  0.16210548  0.50008422     0.06470
C1061       C  0.87499634  0.19398653  0.50005599    -0.09680
C1062       C  0.85166592  0.21719316  0.00001011     0.03970
C1063       C  0.81997858  0.20855666  0.99998854    -0.08200
C1064       C  0.81134118  0.17686956  0.00001006     0.06460
C1065       C  0.83454713  0.15353848  0.50005594    -0.07620
H1066       H  0.89958831  0.20065537  0.50008155     0.12060
H1067       H  0.80193670  0.22659905  0.99996019     0.09590
H1068       H  0.82787758  0.12894670  0.50008147     0.09430
C1069       C  0.66210084  0.16210795  0.49993256     0.06470
C1070       C  0.69398156  0.15354037  0.49995612    -0.09680
C1071       C  0.71718866  0.17687109  0.99999274     0.03970
C1072       C  0.70855280  0.20855842  0.00000945    -0.08200
C1073       C  0.67686577  0.21719531  0.99999265     0.06460
C1074       C  0.65353438  0.19398894  0.49995604    -0.07620
H1075       H  0.70064981  0.12894846  0.49993509     0.12060
H1076       H  0.72659554  0.22660058  0.00003157     0.09590
H1077       H  0.62894269  0.20065799  0.49993495     0.09430
C1078       C  0.66210240  0.36643594  0.50008238     0.06470
C1079       C  0.69398380  0.37500289  0.50005455    -0.09680
C1080       C  0.71718986  0.35167176  0.00000947     0.03970
C1081       C  0.70855248  0.31998470  0.99998833    -0.08200
C1082       C  0.67686522  0.31134811  0.00000943     0.06460
C1083       C  0.65353464  0.33455474  0.50005452    -0.07620
H1084       H  0.70065337  0.39959465  0.50007980     0.12060
H1085       H  0.72659440  0.30194234  0.99996056     0.09590
H1086       H  0.62894272  0.32788578  0.50007975     0.09430
C1087       C  0.86642716  0.01418863  0.85219655     0.06470
C1088       C  0.83454645  0.01421346  0.86076350    -0.09680
C1089       C  0.81133973  0.01425311  0.83743242     0.03970
C1090       C  0.81997599  0.01427165  0.80574523    -0.08200
C1091       C  0.85166320  0.01425349  0.79710901     0.06460
C1092       C  0.87499419  0.01421388  0.82031585    -0.07620
H1093       H  0.82787791  0.01419074  0.88535527     0.12060
H1094       H  0.80193350  0.01429580  0.78770273     0.09590
H1095       H  0.89958599  0.01419147  0.81364741     0.09430
C1096       C  0.66209992  0.01434097  0.85219648     0.06470
C1097       C  0.69398104  0.01431379  0.86076439    -0.09680
C1098       C  0.71718742  0.01427040  0.83743389     0.03970
C1099       C  0.70855065  0.01425032  0.80574663    -0.08200
C1100       C  0.67686353  0.01427068  0.79710927     0.06460
C1101       C  0.65353265  0.01431411  0.82031524    -0.07620
H1102       H  0.70065010  0.01433800  0.88535634     0.12060
H1103       H  0.72659288  0.01422363  0.78770473     0.09590
H1104       H  0.62894082  0.01433855  0.81364572     0.09430
C1105       C  0.66210078  0.01418960  0.64786897     0.06470
C1106       C  0.69398174  0.01421465  0.63930242    -0.09680
C1107       C  0.71718843  0.01425375  0.66263372     0.03970
C1108       C  0.70855186  0.01427158  0.69432076    -0.08200
C1109       C  0.67686463  0.01425338  0.70295674     0.06460
C1110       C  0.65353364  0.01421423  0.67974974    -0.07620
H1111       H  0.70065052  0.01419249  0.61471073     0.12060
H1112       H  0.72659421  0.01429536  0.71236342     0.09590
H1113       H  0.62894182  0.01419176  0.68641813     0.09430
C1114       C  0.86642931  0.01433894  0.64786859     0.06470
C1115       C  0.87499682  0.01431245  0.67974996    -0.09680
C1116       C  0.85166606  0.01427028  0.70295632     0.03970
C1117       C  0.81997886  0.01425073  0.69431935    -0.08200
C1118       C  0.81134160  0.01427056  0.66263226     0.06460
C1119       C  0.83454783  0.01431277  0.63930137    -0.07620
H1120       H  0.89958870  0.01433614  0.68641927     0.12060
H1121       H  0.80193685  0.01422485  0.71236150     0.09590
H1122       H  0.82787832  0.01433669  0.61470957     0.09430
C1123       C  0.51436476  0.16210859  0.85219436     0.06470
C1124       C  0.51434212  0.19398967  0.86076122    -0.09680
C1125       C  0.51430729  0.21719616  0.83743011     0.03970
C1126       C  0.51429140  0.20855938  0.80574300    -0.08200
C1127       C  0.51430734  0.17687214  0.79710663     0.06460
C1128       C  0.51434224  0.15354128  0.82031340    -0.07620
H1129       H  0.51436240  0.20065869  0.88535298     0.12060
H1130       H  0.51427045  0.22660162  0.78770055     0.09590
H1131       H  0.51436259  0.12894942  0.81364470     0.09430
C1132       C  0.51421555  0.36643670  0.85219314     0.06470
C1133       C  0.51424444  0.33455564  0.86076069    -0.09680
C1134       C  0.51429111  0.31134897  0.83743001     0.03970
C1135       C  0.51431293  0.31998553  0.80574280    -0.08200
C1136       C  0.51429070  0.35167264  0.79710578     0.06460
C1137       C  0.51424394  0.37500372  0.82031200    -0.07620
H1138       H  0.51421861  0.32788680  0.88535257     0.12060
H1139       H  0.51434184  0.30194316  0.78770070     0.09590
H1140       H  0.51421776  0.39959550  0.81364275     0.09430
C1141       C  0.51421427  0.16210731  0.64786649     0.06470
C1142       C  0.51424336  0.15354024  0.67974763    -0.09680
C1143       C  0.51429030  0.17687128  0.70295393     0.03970
C1144       C  0.51431217  0.20855840  0.69431693    -0.08200
C1145       C  0.51428989  0.21719497  0.66262971     0.06460
C1146       C  0.51424287  0.19398837  0.63929899    -0.07620
H1147       H  0.51421751  0.12894845  0.68641683     0.12060
H1148       H  0.51434127  0.22660077  0.71235903     0.09590
H1149       H  0.51421667  0.20065725  0.61470713     0.09430
C1150       C  0.51436670  0.36643506  0.64786562     0.06470
C1151       C  0.51434348  0.37500240  0.67974651    -0.09680
C1152       C  0.51430774  0.35167155  0.70295321     0.03970
C1153       C  0.51429153  0.31998432  0.69431684    -0.08200
C1154       C  0.51430780  0.31134759  0.66262972     0.06460
C1155       C  0.51434361  0.33455405  0.63929866    -0.07620
H1156       H  0.51436410  0.39959427  0.68641520     0.12060
H1157       H  0.51426998  0.30194206  0.71235926     0.09590
H1158       H  0.51436430  0.32788508  0.61470689     0.09430
O1159       O  0.92487681  0.46309552  0.49978733    -0.83150
O1160       O  0.60365544  0.46309882  0.50026435    -0.83310
O1161       O  0.51403179  0.42488305  0.94885500    -0.84980
O1162       O  0.51451114  0.42488180  0.55120322    -0.83740
O1163       O  0.51450946  0.46309668  0.58941877    -0.83330
O1164       O  0.51403009  0.46309899  0.91064017    -0.84700
O1165       O  0.56544044  0.42488264  0.50026348    -0.83180
O1166       O  0.96309251  0.42488122  0.49978541    -0.82760
Zr1167     Zr  0.51426627  0.45077769  0.50002943     2.84310
O1168       O  0.54609967  0.48243775  0.53186480    -1.04740
O1169       O  0.98243073  0.48243734  0.96819639    -1.05470
C1170       C  0.93423488  0.43423826  0.49973830     1.09960
C1171       C  0.59429811  0.43424083  0.50030819     1.09900
C1172       C  0.51398666  0.43424119  0.91999748     1.12890
C1173       C  0.51455856  0.43423926  0.58006082     1.10670
H1174       H  0.55920244  0.46933601  0.95509252     0.36220
O1175       O  0.54610463  0.48243299  0.96819048    -1.25690
H1176       H  0.96932880  0.46933090  0.54496747     0.35900
O1177       O  0.98242610  0.48242967  0.53186996    -1.27370
O1178       O  0.60365308  0.06544687  0.49978713    -0.83140
O1179       O  0.92487474  0.06544325  0.50026567    -0.84640
O1180       O  0.56543767  0.01451155  0.91064148    -0.83220
O1181       O  0.56543918  0.01403156  0.58942018    -0.83270
O1182       O  0.96309158  0.01450706  0.58942059    -0.82980
O1183       O  0.96308945  0.01403147  0.91064257    -0.82780
O1184       O  0.51450612  0.10366142  0.94885708    -0.83160
O1185       O  0.51402993  0.10366062  0.55120463    -0.82620
O1186       O  0.51450713  0.06544651  0.91064170    -0.83680
O1187       O  0.51403095  0.06544496  0.58941981    -0.82840
O1188       O  0.60365349  0.01451123  0.94885712    -0.83240
O1189       O  0.92487499  0.01403000  0.94885785    -0.82960
O1190       O  0.92487553  0.01450667  0.55120525    -0.82610
O1191       O  0.60365412  0.01403232  0.55120543    -0.83020
O1192       O  0.56543769  0.10366145  0.49978751    -0.83310
O1193       O  0.96308975  0.10365951  0.50026502    -0.84650
Zr1194     Zr  0.57775865  0.01427229  0.50003078     2.83100
Zr1195     Zr  0.95077138  0.01427008  0.50003125     2.83500
Zr1196     Zr  0.51426426  0.01427226  0.93653697     2.84090
Zr1197     Zr  0.51426526  0.01427097  0.56352410     2.83360
Zr1198     Zr  0.51426405  0.07776506  0.50003077     2.84220
O1199       O  0.98243001  0.04610582  0.53186582    -1.05220
O1200       O  0.54609817  0.04610648  0.96819726    -1.04730
C1201       C  0.59429521  0.09430418  0.49973924     1.09930
C1202       C  0.93423217  0.09430115  0.50030992     1.12550
C1203       C  0.59429543  0.01455732  0.91999944     1.10110
C1204       C  0.59429660  0.01398526  0.58006286     1.10470
C1205       C  0.93423355  0.01455247  0.58006310     1.10050
C1206       C  0.93423221  0.01398395  0.92000047     1.09600
C1207       C  0.51455458  0.09430403  0.91999947     1.10030
C1208       C  0.51398595  0.09430271  0.58006223     1.09540
H1209       H  0.96932654  0.05920813  0.95509250     0.36220
O1210       O  0.98242438  0.04611049  0.96819082    -1.26320
H1211       H  0.55920323  0.05920917  0.54496774     0.36240
O1212       O  0.54610477  0.04611117  0.53187014    -1.27710
C1213       C  0.51453210  0.41039215  0.60390772    -0.09930
C1214       C  0.51444877  0.39035429  0.62394601    -0.11490
C1215       C  0.51430183  0.27842918  0.65498910    -0.09930
C1216       C  0.51429765  0.25011343  0.65498887    -0.11490
C1217       C  0.51411838  0.13818775  0.62394726    -0.09930
C1218       C  0.51402349  0.11814965  0.60390932    -0.11490
C1219       C  0.51430195  0.35931250  0.73587152    -0.09930
C1220       C  0.51429809  0.35931302  0.76418725    -0.11490
C1221       C  0.51411985  0.39035634  0.87611228    -0.09930
C1222       C  0.51402477  0.41039445  0.89615020    -0.11490
C1223       C  0.51430192  0.16923125  0.76418826    -0.09930
C1224       C  0.51429808  0.16923085  0.73587250    -0.11490
C1225       C  0.51430206  0.25011466  0.84507063    -0.09930
C1226       C  0.51429854  0.27843045  0.84507084    -0.11490
C1227       C  0.51444553  0.13818925  0.87611409    -0.09930
C1228       C  0.51452804  0.11815127  0.89615242    -0.11490
C1229       C  0.89034872  0.01442880  0.62394889    -0.09930
C1230       C  0.91038656  0.01451885  0.60391056    -0.11490
C1231       C  0.75010686  0.01426014  0.65499322    -0.09930
C1232       C  0.77842270  0.01426393  0.65499207    -0.11490
C1233       C  0.63818142  0.01410322  0.62394903    -0.09930
C1234       C  0.61814361  0.01401599  0.60391031    -0.11490
C1235       C  0.66922305  0.01426362  0.76419064    -0.09930
C1236       C  0.66922373  0.01425965  0.73587492    -0.11490
C1237       C  0.63818044  0.01443247  0.87611529    -0.09930
C1238       C  0.61814225  0.01452364  0.89615274    -0.11490
C1239       C  0.85930633  0.01426355  0.73587509    -0.09930
C1240       C  0.85930441  0.01425982  0.76419086    -0.11490
C1241       C  0.77842164  0.01425932  0.84507345    -0.09930
C1242       C  0.75010594  0.01426324  0.84507471    -0.11490
C1243       C  0.89034657  0.01410192  0.87611595    -0.09930
C1244       C  0.91038489  0.01401456  0.89615384    -0.11490
C1245       C  0.61814545  0.41039398  0.50027049    -0.09930
C1246       C  0.63818329  0.39035574  0.50017641    -0.11490
C1247       C  0.66922535  0.25011372  0.99999842    -0.09950
C1248       C  0.66922448  0.27842950  0.00000220    -0.11490
C1249       C  0.61814217  0.11815133  0.49976608    -0.09930
C1250       C  0.63818082  0.13818899  0.49984980    -0.11490
C1251       C  0.77842256  0.16922921  0.00000258    -0.09930
C1252       C  0.75010682  0.16922989  0.99999865    -0.11490
C1253       C  0.89034726  0.13818584  0.50017883    -0.09930
C1254       C  0.91038498  0.11814774  0.50027285    -0.11490
C1255       C  0.77842444  0.35931034  0.99999851    -0.09930
C1256       C  0.75010865  0.35931172  0.00000228    -0.11490
C1257       C  0.85930710  0.25011161  0.00000267    -0.09930
C1258       C  0.85930684  0.27842736  0.99999874    -0.11490
C1259       C  0.89034998  0.39035264  0.49984933    -0.09930
C1260       C  0.91038814  0.41039082  0.49976533    -0.11490
C1261       C  0.86643040  0.86643320  0.99993237     0.06470
C1262       C  0.87499731  0.83455231  0.99995603    -0.09680
C1263       C  0.85166617  0.81134566  0.49999280     0.03970
C1264       C  0.81997901  0.81998212  0.50000960    -0.08200
C1265       C  0.81134271  0.85166933  0.49999271     0.06460
C1266       C  0.83454955  0.87500030  0.99995593    -0.07620
H1267       H  0.89958908  0.82788357  0.99993491     0.12060
H1268       H  0.80193651  0.80193972  0.50003184     0.09590
H1269       H  0.82788098  0.89959212  0.99993473     0.09430
C1270       C  0.86642839  0.66210548  0.00008421     0.06470
C1271       C  0.87499633  0.69398652  0.00005599    -0.09680
C1272       C  0.85166592  0.71719317  0.50001010     0.03970
C1273       C  0.81997858  0.70855666  0.49998854    -0.08200
C1274       C  0.81134119  0.67686956  0.50001006     0.06460
C1275       C  0.83454713  0.65353848  0.00005593    -0.07620
H1276       H  0.89958831  0.70065536  0.00008156     0.12060
H1277       H  0.80193670  0.72659905  0.49996017     0.09590
H1278       H  0.82787757  0.62894670  0.00008146     0.09430
C1279       C  0.66210083  0.66210796  0.99993257     0.06470
C1280       C  0.69398156  0.65354038  0.99995613    -0.09680
C1281       C  0.71718866  0.67687109  0.49999274     0.03970
C1282       C  0.70855280  0.70855841  0.50000946    -0.08200
C1283       C  0.67686578  0.71719530  0.49999266     0.06460
C1284       C  0.65353437  0.69398895  0.99995604    -0.07620
H1285       H  0.70064980  0.62894847  0.99993511     0.12060
H1286       H  0.72659554  0.72660058  0.50003159     0.09590
H1287       H  0.62894269  0.70065801  0.99993494     0.09430
C1288       C  0.66210242  0.86643595  0.00008236     0.06470
C1289       C  0.69398381  0.87500290  0.00005454    -0.09680
C1290       C  0.71718985  0.85167175  0.50000948     0.03970
C1291       C  0.70855248  0.81998470  0.49998834    -0.08200
C1292       C  0.67686522  0.81134811  0.50000945     0.06460
C1293       C  0.65353465  0.83455475  0.00005450    -0.07620
H1294       H  0.70065339  0.89959466  0.00007980     0.12060
H1295       H  0.72659440  0.80194233  0.49996057     0.09590
H1296       H  0.62894272  0.82788579  0.00007972     0.09430
C1297       C  0.86642717  0.51418864  0.35219654     0.06470
C1298       C  0.83454646  0.51421345  0.36076349    -0.09680
C1299       C  0.81133974  0.51425311  0.33743241     0.03970
C1300       C  0.81997599  0.51427165  0.30574522    -0.08200
C1301       C  0.85166320  0.51425350  0.29710900     0.06460
C1302       C  0.87499419  0.51421389  0.32031585    -0.07620
H1303       H  0.82787792  0.51419073  0.38535527     0.12060
H1304       H  0.80193350  0.51429582  0.28770272     0.09590
H1305       H  0.89958600  0.51419148  0.31364740     0.09430
C1306       C  0.66209993  0.51434096  0.35219648     0.06470
C1307       C  0.69398104  0.51431378  0.36076439    -0.09680
C1308       C  0.71718743  0.51427040  0.33743389     0.03970
C1309       C  0.70855066  0.51425031  0.30574663    -0.08200
C1310       C  0.67686354  0.51427067  0.29710927     0.06460
C1311       C  0.65353266  0.51431410  0.32031524    -0.07620
H1312       H  0.70065011  0.51433799  0.38535634     0.12060
H1313       H  0.72659289  0.51422362  0.28770473     0.09590
H1314       H  0.62894083  0.51433855  0.31364572     0.09430
C1315       C  0.66210079  0.51418960  0.14786897     0.06470
C1316       C  0.69398175  0.51421465  0.13930242    -0.09680
C1317       C  0.71718844  0.51425375  0.16263372     0.03970
C1318       C  0.70855187  0.51427157  0.19432076    -0.08200
C1319       C  0.67686463  0.51425337  0.20295673     0.06460
C1320       C  0.65353365  0.51421422  0.17974974    -0.07620
H1321       H  0.70065053  0.51419249  0.11471073     0.12060
H1322       H  0.72659422  0.51429536  0.21236342     0.09590
H1323       H  0.62894182  0.51419176  0.18641812     0.09430
C1324       C  0.86642931  0.51433894  0.14786858     0.06470
C1325       C  0.87499683  0.51431246  0.17974995    -0.09680
C1326       C  0.85166607  0.51427029  0.20295631     0.03970
C1327       C  0.81997886  0.51425074  0.19431934    -0.08200
C1328       C  0.81134160  0.51427056  0.16263225     0.06460
C1329       C  0.83454783  0.51431277  0.13930136    -0.07620
H1330       H  0.89958870  0.51433615  0.18641926     0.12060
H1331       H  0.80193685  0.51422486  0.21236149     0.09590
H1332       H  0.82787833  0.51433669  0.11470956     0.09430
C1333       C  0.51436477  0.66210859  0.35219435     0.06470
C1334       C  0.51434213  0.69398968  0.36076121    -0.09680
C1335       C  0.51430730  0.71719616  0.33743009     0.03970
C1336       C  0.51429141  0.70855938  0.30574299    -0.08200
C1337       C  0.51430735  0.67687214  0.29710663     0.06460
C1338       C  0.51434225  0.65354128  0.32031340    -0.07620
H1339       H  0.51436241  0.70065870  0.38535297     0.12060
H1340       H  0.51427046  0.72660162  0.28770054     0.09590
H1341       H  0.51436260  0.62894942  0.31364470     0.09430
C1342       C  0.51421556  0.86643671  0.35219312     0.06470
C1343       C  0.51424445  0.83455564  0.36076066    -0.09680
C1344       C  0.51429113  0.81134898  0.33742998     0.03970
C1345       C  0.51431295  0.81998553  0.30574277    -0.08200
C1346       C  0.51429071  0.85167265  0.29710575     0.06460
C1347       C  0.51424395  0.87500373  0.32031198    -0.07620
H1348       H  0.51421862  0.82788681  0.38535254     0.12060
H1349       H  0.51434186  0.80194316  0.28770067     0.09590
H1350       H  0.51421777  0.89959551  0.31364272     0.09430
C1351       C  0.51421429  0.66210731  0.14786648     0.06470
C1352       C  0.51424338  0.65354024  0.17974763    -0.09680
C1353       C  0.51429032  0.67687128  0.20295392     0.03970
C1354       C  0.51431218  0.70855840  0.19431692    -0.08200
C1355       C  0.51428991  0.71719496  0.16262970     0.06460
C1356       C  0.51424288  0.69398836  0.13929899    -0.07620
H1357       H  0.51421752  0.62894845  0.18641683     0.12060
H1358       H  0.51434129  0.72660077  0.21235902     0.09590
H1359       H  0.51421668  0.70065724  0.11470712     0.09430
C1360       C  0.51436671  0.86643505  0.14786559     0.06470
C1361       C  0.51434349  0.87500240  0.17974648    -0.09680
C1362       C  0.51430775  0.85167155  0.20295319     0.03970
C1363       C  0.51429154  0.81998431  0.19431681    -0.08200
C1364       C  0.51430781  0.81134758  0.16262970     0.06460
C1365       C  0.51434361  0.83455404  0.13929863    -0.07620
H1366       H  0.51436410  0.89959426  0.18641517     0.12060
H1367       H  0.51426999  0.80194206  0.21235924     0.09590
H1368       H  0.51436430  0.82788508  0.11470686     0.09430
O1369       O  0.92487681  0.96309552  0.99978733    -0.83150
O1370       O  0.60365544  0.96309883  0.00026435    -0.83310
O1371       O  0.51403179  0.92488304  0.44885500    -0.84980
O1372       O  0.51451114  0.92488180  0.05120321    -0.83740
O1373       O  0.51450945  0.96309668  0.08941876    -0.83330
O1374       O  0.51403010  0.96309899  0.41064016    -0.84700
O1375       O  0.56544045  0.92488265  0.00026348    -0.83180
O1376       O  0.96309251  0.92488123  0.99978541    -0.82760
Zr1377     Zr  0.51426627  0.95077769  0.00002943     2.84310
O1378       O  0.54609968  0.98243776  0.03186480    -1.04740
O1379       O  0.98243072  0.98243734  0.46819639    -1.05470
C1380       C  0.93423488  0.93423826  0.99973830     1.09960
C1381       C  0.59429811  0.93424084  0.00030818     1.09900
C1382       C  0.51398667  0.93424118  0.41999748     1.12890
C1383       C  0.51455856  0.93423926  0.08006081     1.10670
H1384       H  0.55920244  0.96933600  0.45509252     0.36220
O1385       O  0.54610463  0.98243298  0.46819049    -1.25690
H1386       H  0.96932880  0.96933090  0.04496747     0.35900
O1387       O  0.98242609  0.98242967  0.03186996    -1.27370
O1388       O  0.60365308  0.56544688  0.99978713    -0.83140
O1389       O  0.92487474  0.56544325  0.00026567    -0.84640
O1390       O  0.56543767  0.51451155  0.41064148    -0.83220
O1391       O  0.56543919  0.51403156  0.08942017    -0.83270
O1392       O  0.96309158  0.51450707  0.08942059    -0.82980
O1393       O  0.96308946  0.51403146  0.41064257    -0.82780
O1394       O  0.51450612  0.60366142  0.44885707    -0.83160
O1395       O  0.51402992  0.60366062  0.05120463    -0.82620
O1396       O  0.51450713  0.56544651  0.41064170    -0.83680
O1397       O  0.51403096  0.56544496  0.08941981    -0.82840
O1398       O  0.60365349  0.51451122  0.44885712    -0.83240
O1399       O  0.92487500  0.51403000  0.44885784    -0.82960
O1400       O  0.92487553  0.51450667  0.05120524    -0.82610
O1401       O  0.60365412  0.51403232  0.05120542    -0.83020
O1402       O  0.56543768  0.60366146  0.99978752    -0.83310
O1403       O  0.96308975  0.60365951  0.00026502    -0.84650
Zr1404     Zr  0.57775865  0.51427230  0.00003077     2.83100
Zr1405     Zr  0.95077138  0.51427009  0.00003125     2.83500
Zr1406     Zr  0.51426426  0.51427226  0.43653697     2.84090
Zr1407     Zr  0.51426527  0.51427097  0.06352410     2.83360
Zr1408     Zr  0.51426405  0.57776506  0.00003077     2.84220
O1409       O  0.98243001  0.54610582  0.03186582    -1.05220
O1410       O  0.54609817  0.54610647  0.46819725    -1.04730
C1411       C  0.59429520  0.59430419  0.99973925     1.09930
C1412       C  0.93423217  0.59430115  0.00030991     1.12550
C1413       C  0.59429543  0.51455731  0.41999943     1.10110
C1414       C  0.59429661  0.51398527  0.08006285     1.10470
C1415       C  0.93423355  0.51455247  0.08006309     1.10050
C1416       C  0.93423222  0.51398394  0.42000046     1.09600
C1417       C  0.51455459  0.59430403  0.41999946     1.10030
C1418       C  0.51398595  0.59430271  0.08006223     1.09540
H1419       H  0.96932655  0.55920812  0.45509249     0.36220
O1420       O  0.98242438  0.54611048  0.46819081    -1.26320
H1421       H  0.55920323  0.55920917  0.04496774     0.36240
O1422       O  0.54610477  0.54611118  0.03187014    -1.27710
C1423       C  0.51453210  0.91039214  0.10390770    -0.09930
C1424       C  0.51444877  0.89035428  0.12394599    -0.11490
C1425       C  0.51430184  0.77842918  0.15498908    -0.09930
C1426       C  0.51429767  0.75011343  0.15498886    -0.11490
C1427       C  0.51411839  0.63818775  0.12394726    -0.09930
C1428       C  0.51402350  0.61814964  0.10390933    -0.11490
C1429       C  0.51430196  0.85931250  0.23587149    -0.09930
C1430       C  0.51429810  0.85931303  0.26418722    -0.11490
C1431       C  0.51411987  0.89035634  0.37611226    -0.09930
C1432       C  0.51402478  0.91039445  0.39615019    -0.11490
C1433       C  0.51430193  0.66923125  0.26418825    -0.09930
C1434       C  0.51429810  0.66923085  0.23587249    -0.11490
C1435       C  0.51430207  0.75011466  0.34507061    -0.09930
C1436       C  0.51429855  0.77843046  0.34507081    -0.11490
C1437       C  0.51444554  0.63818925  0.37611409    -0.09930
C1438       C  0.51452804  0.61815127  0.39615242    -0.11490
C1439       C  0.89034872  0.51442880  0.12394888    -0.09930
C1440       C  0.91038656  0.51451886  0.10391055    -0.11490
C1441       C  0.75010687  0.51426013  0.15499321    -0.09930
C1442       C  0.77842271  0.51426392  0.15499206    -0.11490
C1443       C  0.63818142  0.51410322  0.12394903    -0.09930
C1444       C  0.61814362  0.51401599  0.10391030    -0.11490
C1445       C  0.66922306  0.51426361  0.26419064    -0.09930
C1446       C  0.66922374  0.51425964  0.23587491    -0.11490
C1447       C  0.63818045  0.51443246  0.37611529    -0.09930
C1448       C  0.61814225  0.51452363  0.39615273    -0.11490
C1449       C  0.85930634  0.51426357  0.23587508    -0.09930
C1450       C  0.85930442  0.51425983  0.26419085    -0.11490
C1451       C  0.77842165  0.51425932  0.34507345    -0.09930
C1452       C  0.75010595  0.51426324  0.34507471    -0.11490
C1453       C  0.89034658  0.51410191  0.37611594    -0.09930
C1454       C  0.91038491  0.51401456  0.39615383    -0.11490
C1455       C  0.61814546  0.91039399  0.00027048    -0.09930
C1456       C  0.63818330  0.89035576  0.00017639    -0.11490
C1457       C  0.66922535  0.75011371  0.49999844    -0.09950
C1458       C  0.66922448  0.77842949  0.50000222    -0.11490
C1459       C  0.61814216  0.61815135  0.99976610    -0.09930
C1460       C  0.63818081  0.63818900  0.99984981    -0.11490
C1461       C  0.77842256  0.66922921  0.50000258    -0.09930
C1462       C  0.75010683  0.66922989  0.49999864    -0.11490
C1463       C  0.89034725  0.63818584  0.00017882    -0.09930
C1464       C  0.91038498  0.61814774  0.00027284    -0.11490
C1465       C  0.77842443  0.85931034  0.49999851    -0.09930
C1466       C  0.75010865  0.85931172  0.50000228    -0.11490
C1467       C  0.85930710  0.75011162  0.50000266    -0.09930
C1468       C  0.85930683  0.77842736  0.49999873    -0.11490
C1469       C  0.89034999  0.89035263  0.99984933    -0.09930
C1470       C  0.91038814  0.91039082  0.99976533    -0.11490
C1471       C  0.86643040  0.86643320  0.49993237     0.06470
C1472       C  0.87499731  0.83455231  0.49995602    -0.09680
C1473       C  0.85166617  0.81134566  0.99999281     0.03970
C1474       C  0.81997901  0.81998212  0.00000961    -0.08200
C1475       C  0.81134271  0.85166933  0.99999271     0.06460
C1476       C  0.83454954  0.87500030  0.49995593    -0.07620
H1477       H  0.89958908  0.82788358  0.49993491     0.12060
H1478       H  0.80193651  0.80193972  0.00003185     0.09590
H1479       H  0.82788097  0.89959212  0.49993473     0.09430
C1480       C  0.86642840  0.66210548  0.50008422     0.06470
C1481       C  0.87499635  0.69398652  0.50005599    -0.09680
C1482       C  0.85166591  0.71719316  0.00001011     0.03970
C1483       C  0.81997857  0.70855666  0.99998854    -0.08200
C1484       C  0.81134118  0.67686956  0.00001006     0.06460
C1485       C  0.83454714  0.65353848  0.50005594    -0.07620
H1486       H  0.89958832  0.70065536  0.50008155     0.12060
H1487       H  0.80193669  0.72659905  0.99996019     0.09590
H1488       H  0.82787758  0.62894670  0.50008147     0.09430
C1489       C  0.66210084  0.66210795  0.49993256     0.06470
C1490       C  0.69398157  0.65354037  0.49995612    -0.09680
C1491       C  0.71718865  0.67687109  0.99999274     0.03970
C1492       C  0.70855280  0.70855842  0.00000945    -0.08200
C1493       C  0.67686577  0.71719531  0.99999265     0.06460
C1494       C  0.65353438  0.69398894  0.49995604    -0.07620
H1495       H  0.70064981  0.62894846  0.49993509     0.12060
H1496       H  0.72659553  0.72660058  0.00003157     0.09590
H1497       H  0.62894269  0.70065799  0.49993494     0.09430
C1498       C  0.66210241  0.86643594  0.50008238     0.06470
C1499       C  0.69398380  0.87500289  0.50005455    -0.09680
C1500       C  0.71718985  0.85167176  0.00000947     0.03970
C1501       C  0.70855248  0.81998471  0.99998833    -0.08200
C1502       C  0.67686522  0.81134812  0.00000943     0.06460
C1503       C  0.65353465  0.83455475  0.50005452    -0.07620
H1504       H  0.70065338  0.89959465  0.50007980     0.12060
H1505       H  0.72659440  0.80194234  0.99996056     0.09590
H1506       H  0.62894273  0.82788578  0.50007975     0.09430
C1507       C  0.86642717  0.51418864  0.85219655     0.06470
C1508       C  0.83454646  0.51421346  0.86076350    -0.09680
C1509       C  0.81133974  0.51425311  0.83743242     0.03970
C1510       C  0.81997599  0.51427166  0.80574523    -0.08200
C1511       C  0.85166320  0.51425350  0.79710900     0.06460
C1512       C  0.87499419  0.51421390  0.82031585    -0.07620
H1513       H  0.82787792  0.51419074  0.88535527     0.12060
H1514       H  0.80193350  0.51429582  0.78770273     0.09590
H1515       H  0.89958600  0.51419148  0.81364740     0.09430
C1516       C  0.66209993  0.51434097  0.85219648     0.06470
C1517       C  0.69398104  0.51431379  0.86076440    -0.09680
C1518       C  0.71718743  0.51427040  0.83743390     0.03970
C1519       C  0.70855066  0.51425031  0.80574663    -0.08200
C1520       C  0.67686354  0.51427068  0.79710927     0.06460
C1521       C  0.65353266  0.51431411  0.82031523    -0.07620
H1522       H  0.70065010  0.51433800  0.88535634     0.12060
H1523       H  0.72659290  0.51422362  0.78770473     0.09590
H1524       H  0.62894083  0.51433855  0.81364571     0.09430
C1525       C  0.66210079  0.51418960  0.64786897     0.06470
C1526       C  0.69398175  0.51421465  0.63930242    -0.09680
C1527       C  0.71718844  0.51425375  0.66263372     0.03970
C1528       C  0.70855187  0.51427157  0.69432076    -0.08200
C1529       C  0.67686464  0.51425338  0.70295673     0.06460
C1530       C  0.65353365  0.51421423  0.67974974    -0.07620
H1531       H  0.70065052  0.51419249  0.61471073     0.12060
H1532       H  0.72659422  0.51429536  0.71236342     0.09590
H1533       H  0.62894182  0.51419176  0.68641813     0.09430
C1534       C  0.86642931  0.51433895  0.64786858     0.06470
C1535       C  0.87499683  0.51431246  0.67974996    -0.09680
C1536       C  0.85166606  0.51427029  0.70295631     0.03970
C1537       C  0.81997886  0.51425074  0.69431934    -0.08200
C1538       C  0.81134160  0.51427056  0.66263225     0.06460
C1539       C  0.83454784  0.51431277  0.63930137    -0.07620
H1540       H  0.89958870  0.51433615  0.68641927     0.12060
H1541       H  0.80193685  0.51422486  0.71236149     0.09590
H1542       H  0.82787833  0.51433669  0.61470956     0.09430
C1543       C  0.51436476  0.66210859  0.85219436     0.06470
C1544       C  0.51434212  0.69398967  0.86076122    -0.09680
C1545       C  0.51430730  0.71719616  0.83743011     0.03970
C1546       C  0.51429141  0.70855938  0.80574300    -0.08200
C1547       C  0.51430736  0.67687214  0.79710663     0.06460
C1548       C  0.51434225  0.65354128  0.82031340    -0.07620
H1549       H  0.51436240  0.70065869  0.88535298     0.12060
H1550       H  0.51427047  0.72660162  0.78770055     0.09590
H1551       H  0.51436260  0.62894942  0.81364470     0.09430
C1552       C  0.51421557  0.86643670  0.85219314     0.06470
C1553       C  0.51424445  0.83455564  0.86076069    -0.09680
C1554       C  0.51429112  0.81134897  0.83743001     0.03970
C1555       C  0.51431293  0.81998553  0.80574280    -0.08200
C1556       C  0.51429070  0.85167265  0.79710578     0.06460
C1557       C  0.51424395  0.87500372  0.82031200    -0.07620
H1558       H  0.51421863  0.82788680  0.88535257     0.12060
H1559       H  0.51434183  0.80194316  0.78770070     0.09590
H1560       H  0.51421777  0.89959550  0.81364275     0.09430
C1561       C  0.51421427  0.66210732  0.64786649     0.06470
C1562       C  0.51424337  0.65354024  0.67974763    -0.09680
C1563       C  0.51429031  0.67687128  0.70295393     0.03970
C1564       C  0.51431218  0.70855840  0.69431693    -0.08200
C1565       C  0.51428989  0.71719497  0.66262971     0.06460
C1566       C  0.51424286  0.69398837  0.63929899    -0.07620
H1567       H  0.51421752  0.62894845  0.68641683     0.12060
H1568       H  0.51434128  0.72660077  0.71235903     0.09590
H1569       H  0.51421664  0.70065725  0.61470713     0.09430
C1570       C  0.51436667  0.86643506  0.64786562     0.06470
C1571       C  0.51434345  0.87500241  0.67974651    -0.09680
C1572       C  0.51430772  0.85167156  0.70295322     0.03970
C1573       C  0.51429151  0.81998432  0.69431684    -0.08200
C1574       C  0.51430777  0.81134759  0.66262972     0.06460
C1575       C  0.51434357  0.83455405  0.63929866    -0.07620
H1576       H  0.51436407  0.89959427  0.68641520     0.12060
H1577       H  0.51426997  0.80194206  0.71235927     0.09590
H1578       H  0.51436426  0.82788509  0.61470689     0.09430
O1579       O  0.92487681  0.96309552  0.49978733    -0.83150
O1580       O  0.60365544  0.96309882  0.50026435    -0.83310
O1581       O  0.51403180  0.92488305  0.94885500    -0.84980
O1582       O  0.51451112  0.92488180  0.55120322    -0.83740
O1583       O  0.51450944  0.96309668  0.58941876    -0.83330
O1584       O  0.51403010  0.96309899  0.91064017    -0.84700
O1585       O  0.56544045  0.92488264  0.50026349    -0.83180
O1586       O  0.96309251  0.92488122  0.49978541    -0.82760
Zr1587     Zr  0.51426627  0.95077769  0.50002943     2.84310
O1588       O  0.54609967  0.98243775  0.53186481    -1.04740
O1589       O  0.98243072  0.98243734  0.96819639    -1.05470
C1590       C  0.93423489  0.93423826  0.49973830     1.09960
C1591       C  0.59429811  0.93424083  0.50030819     1.09900
C1592       C  0.51398668  0.93424119  0.91999748     1.12890
C1593       C  0.51455853  0.93423926  0.58006082     1.10670
H1594       H  0.55920244  0.96933601  0.95509252     0.36220
O1595       O  0.54610463  0.98243299  0.96819049    -1.25690
H1596       H  0.96932880  0.96933090  0.54496747     0.35900
O1597       O  0.98242609  0.98242967  0.53186996    -1.27370
O1598       O  0.60365308  0.56544687  0.49978713    -0.83140
O1599       O  0.92487474  0.56544325  0.50026567    -0.84640
O1600       O  0.56543767  0.51451155  0.91064148    -0.83220
O1601       O  0.56543918  0.51403157  0.58942018    -0.83270
O1602       O  0.96309159  0.51450707  0.58942059    -0.82980
O1603       O  0.96308946  0.51403147  0.91064257    -0.82780
O1604       O  0.51450612  0.60366142  0.94885708    -0.83160
O1605       O  0.51402992  0.60366062  0.55120463    -0.82620
O1606       O  0.51450713  0.56544651  0.91064170    -0.83680
O1607       O  0.51403095  0.56544496  0.58941981    -0.82840
O1608       O  0.60365349  0.51451123  0.94885712    -0.83240
O1609       O  0.92487500  0.51403000  0.94885785    -0.82960
O1610       O  0.92487554  0.51450667  0.55120524    -0.82610
O1611       O  0.60365412  0.51403232  0.55120543    -0.83020
O1612       O  0.56543769  0.60366145  0.49978751    -0.83310
O1613       O  0.96308976  0.60365951  0.50026502    -0.84650
Zr1614     Zr  0.57775865  0.51427229  0.50003078     2.83100
Zr1615     Zr  0.95077139  0.51427009  0.50003125     2.83500
Zr1616     Zr  0.51426425  0.51427226  0.93653697     2.84090
Zr1617     Zr  0.51426526  0.51427097  0.56352410     2.83360
Zr1618     Zr  0.51426405  0.57776506  0.50003077     2.84220
O1619       O  0.98243002  0.54610582  0.53186582    -1.05220
O1620       O  0.54609817  0.54610648  0.96819725    -1.04730
C1621       C  0.59429521  0.59430418  0.49973924     1.09930
C1622       C  0.93423217  0.59430115  0.50030991     1.12550
C1623       C  0.59429543  0.51455732  0.91999943     1.10110
C1624       C  0.59429660  0.51398527  0.58006286     1.10470
C1625       C  0.93423355  0.51455247  0.58006310     1.10050
C1626       C  0.93423221  0.51398395  0.92000046     1.09600
C1627       C  0.51455458  0.59430403  0.91999946     1.10030
C1628       C  0.51398594  0.59430271  0.58006223     1.09540
H1629       H  0.96932654  0.55920813  0.95509249     0.36220
O1630       O  0.98242438  0.54611049  0.96819082    -1.26320
H1631       H  0.55920323  0.55920917  0.54496774     0.36240
O1632       O  0.54610477  0.54611118  0.53187014    -1.27710
C1633       C  0.51453207  0.91039215  0.60390772    -0.09930
C1634       C  0.51444873  0.89035429  0.62394601    -0.11490
C1635       C  0.51430181  0.77842919  0.65498910    -0.09930
C1636       C  0.51429764  0.75011343  0.65498888    -0.11490
C1637       C  0.51411837  0.63818775  0.62394726    -0.09930
C1638       C  0.51402349  0.61814965  0.60390932    -0.11490
C1639       C  0.51430194  0.85931251  0.73587152    -0.09930
C1640       C  0.51429808  0.85931303  0.76418725    -0.11490
C1641       C  0.51411988  0.89035634  0.87611228    -0.09930
C1642       C  0.51402479  0.91039445  0.89615020    -0.11490
C1643       C  0.51430194  0.66923125  0.76418826    -0.09930
C1644       C  0.51429810  0.66923085  0.73587250    -0.11490
C1645       C  0.51430207  0.75011466  0.84507063    -0.09930
C1646       C  0.51429854  0.77843045  0.84507083    -0.11490
C1647       C  0.51444553  0.63818925  0.87611409    -0.09930
C1648       C  0.51452804  0.61815127  0.89615242    -0.11490
C1649       C  0.89034872  0.51442881  0.62394889    -0.09930
C1650       C  0.91038656  0.51451886  0.60391056    -0.11490
C1651       C  0.75010687  0.51426014  0.65499321    -0.09930
C1652       C  0.77842271  0.51426393  0.65499206    -0.11490
C1653       C  0.63818142  0.51410322  0.62394903    -0.09930
C1654       C  0.61814361  0.51401600  0.60391031    -0.11490
C1655       C  0.66922306  0.51426362  0.76419064    -0.09930
C1656       C  0.66922375  0.51425964  0.73587491    -0.11490
C1657       C  0.63818044  0.51443246  0.87611528    -0.09930
C1658       C  0.61814225  0.51452364  0.89615273    -0.11490
C1659       C  0.85930633  0.51426357  0.73587509    -0.09930
C1660       C  0.85930441  0.51425984  0.76419085    -0.11490
C1661       C  0.77842164  0.51425932  0.84507346    -0.09930
C1662       C  0.75010594  0.51426324  0.84507471    -0.11490
C1663       C  0.89034657  0.51410192  0.87611595    -0.09930
C1664       C  0.91038490  0.51401457  0.89615384    -0.11490
C1665       C  0.61814546  0.91039398  0.50027049    -0.09930
C1666       C  0.63818329  0.89035575  0.50017641    -0.11490
C1667       C  0.66922534  0.75011372  0.99999842    -0.09950
C1668       C  0.66922448  0.77842950  0.00000220    -0.11490
C1669       C  0.61814217  0.61815134  0.49976608    -0.09930
C1670       C  0.63818082  0.63818899  0.49984980    -0.11490
C1671       C  0.77842255  0.66922921  0.00000258    -0.09930
C1672       C  0.75010682  0.66922989  0.99999865    -0.11490
C1673       C  0.89034726  0.63818584  0.50017883    -0.09930
C1674       C  0.91038499  0.61814774  0.50027285    -0.11490
C1675       C  0.77842443  0.85931034  0.99999851    -0.09930
C1676       C  0.75010865  0.85931172  0.00000228    -0.11490
C1677       C  0.85930709  0.75011161  0.00000267    -0.09930
C1678       C  0.85930683  0.77842736  0.99999874    -0.11490
C1679       C  0.89034999  0.89035263  0.49984933    -0.09930
C1680       C  0.91038814  0.91039081  0.49976533    -0.11490
loop_ 
_geom_bond_atom_site_label_1 
_geom_bond_atom_site_label_2 
_geom_bond_distance 
_geom_bond_site_symmetry_2 
_ccdc_geom_bond_type 
C1            C2   1.405       .  A
C1            C6   1.405       .  A
C1          C209   1.439       .  S
C2          C213   1.400       .  A
C2            H7   1.084       .  S
C3            C4   1.398       .  A
C3          C212   1.400       .  A
C3          C208   1.438       .  S
C4            C5   1.398       .  A
C4            H8   1.086       .  S
C5          C216   1.400       .  A
C5          C205   1.438       .  S
C6          C215   1.400       .  A
C6            H9   1.084       .  S
C10          C11   1.405       .  A
C10          C15   1.405       .  A
C10         C203   1.439       .  S
C11         C222   1.400       .  A
C11          H16   1.084       .  S
C12          C13   1.398       .  A
C12         C221   1.400       .  A
C12         C207   1.438       .  S
C13          C14   1.398       .  A
C13          H17   1.086       .  S
C14         C225   1.400       .  A
C14         C201   1.438       .  S
C15         C224   1.400       .  A
C15          H18   1.084       .  S
C19          C20   1.405       .  A
C19          C24   1.405       .  A
C19         C200   1.439       .  S
C20         C231   1.400       .  A
C20          H25   1.084       .  S
C21          C22   1.398       .  A
C21         C230   1.400       .  A
C21         C202   1.438       .  S
C22          C23   1.398       .  A
C22          H26   1.086       .  S
C23         C234   1.400       .  A
C23         C197   1.438       .  S
C24         C233   1.400       .  A
C24          H27   1.084       .  S
C28          C29   1.405       .  A
C28          C33   1.405       .  A
C28         C196   1.439       .  S
C29         C240   1.400       .  A
C29          H34   1.084       .  S
C30          C31   1.398       .  A
C30         C239   1.400       .  A
C30         C206   1.438       .  S
C31          C32   1.398       .  A
C31          H35   1.086       .  S
C32         C243   1.400       .  A
C32         C198   1.438       .  S
C33         C242   1.400       .  A
C33          H36   1.084       .  S
C37          C38   1.405       .  A
C37          C42   1.405       .  A
C37         C193   1.439       .  S
C38          C39   1.400       .  A
C38          H43   1.084       .  S
C39          C40   1.398       .  A
C39         C191   1.438       .  S
C40          C41   1.398       .  A
C40          H44   1.086       .  S
C41          C42   1.400       .  A
C41         C190   1.438       .  S
C42          H45   1.084       .  S
C46          C47   1.405       .  A
C46          C51   1.405       .  A
C46         C187   1.439       .  S
C47          C48   1.400       .  A
C47          H52   1.084       .  S
C48          C49   1.398       .  A
C48         C192   1.438       .  S
C49          C50   1.398       .  A
C49          H53   1.086       .  S
C50          C51   1.400       .  A
C50         C185   1.438       .  S
C51          H54   1.084       .  S
C55          C56   1.405       .  A
C55          C60   1.405       .  A
C55         C183   1.439       .  S
C56          C57   1.400       .  A
C56          H61   1.084       .  S
C57          C58   1.398       .  A
C57         C181   1.438       .  S
C58          C59   1.398       .  A
C58          H62   1.086       .  S
C59          C60   1.400       .  A
C59         C186   1.438       .  S
C60          H63   1.084       .  S
C64          C65   1.405       .  A
C64          C69   1.405       .  A
C64         C179   1.439       .  S
C65          C66   1.400       .  A
C65          H70   1.084       .  S
C66          C67   1.398       .  A
C66         C189   1.438       .  S
C67          C68   1.398       .  A
C67          H71   1.086       .  S
C68          C69   1.400       .  A
C68         C182   1.438       .  S
C69          H72   1.084       .  S
C73          C74   1.405       .  A
C73          C78   1.405       .  A
C73         C177   1.439       .  S
C74          C75   1.400       .  A
C74          H79   1.084       .  S
C75          C76   1.398       .  A
C75         C175   1.438       .  S
C76          C77   1.398       .  A
C76          H80   1.086       .  S
C77          C78   1.400       .  A
C77         C173   1.438       .  S
C78          H81   1.084       .  S
C82          C83   1.405       .  A
C82          C87   1.405       .  A
C82         C171   1.439       .  S
C83          C84   1.400       .  A
C83          H88   1.084       .  S
C84          C85   1.398       .  A
C84         C176   1.438       .  S
C85          C86   1.398       .  A
C85          H89   1.086       .  S
C86          C87   1.400       .  A
C86         C170   1.438       .  S
C87          H90   1.084       .  S
C91          C92   1.405       .  A
C91          C96   1.405       .  A
C91         C167   1.439       .  S
C92          C93   1.400       .  A
C92          H97   1.084       .  S
C93          C94   1.398       .  A
C93         C174   1.438       .  S
C94          C95   1.398       .  A
C94          H98   1.086       .  S
C95          C96   1.400       .  A
C95         C166   1.438       .  S
C96          H99   1.084       .  S
C100        C101   1.405       .  A
C100        C105   1.405       .  A
C100        C164   1.439       .  S
C101        C102   1.400       .  A
C101        H106   1.084       .  S
C102        C103   1.398       .  A
C102        C169   1.438       .  S
C103        C104   1.398       .  A
C103        H107   1.086       .  S
C104        C105   1.400       .  A
C104        C165   1.438       .  S
C105        H108   1.084       .  S
O109        C120   1.291       .  A
O109       Zr565   2.441   1_556  S
O110        C121   1.291       .  A
O110       Zr564   2.441       .  S
O111        C122   1.291       .  A
O111       Zr327   2.441       .  S
O112        C123   1.291       .  A
O112       Zr117   2.441       .  S
O113        C123   1.291       .  A
O113       Zr567   2.441       .  S
O114        C122   1.291       .  A
O114       Zr566   2.441       .  S
O115        C121   1.291       .  A
O115       Zr117   2.441       .  S
O116        C120   1.291       .  A
O116       Zr957   2.441   1_556  S
Zr117       O321   2.441   1_554  S
Zr117       O956   2.441   1_454  S
Zr117       O118   2.342       .  S
Zr117      O1169   2.342   1_454  S
Zr117       O967   2.342   1_455  S
Zr117       O335   2.342   1_554  S
O118       Zr564   2.342       .  S
O118       Zr567   2.342       .  S
O119      Zr1167   2.342       .  S
O119       Zr775   2.342       .  S
O119      Zr1406   2.342       .  S
C120        C210   1.435       .  S
C121        C195   1.435       .  S
C122        C172   1.435       .  S
C123        C163   1.435       .  S
H124        O125   0.965       .  S
O125       Zr327   2.342       .  S
O125       Zr774   2.342       .  S
O125       Zr566   2.342       .  S
H126        O127   0.965       .  S
O127       Zr957   2.342       .  S
O127       Zr565   2.342       .  S
O127      Zr1407   2.342       .  S
O128        C151   1.291       .  A
O128       Zr144   2.441   1_556  S
O129        C152   1.291       .  A
O129       Zr145   2.441       .  S
O130        C153   1.291       .  A
O130       Zr146   2.441       .  S
O131        C154   1.291       .  A
O131       Zr147   2.441       .  S
O132        C155   1.291       .  A
O132       Zr987   2.441       .  S
O133        C156   1.291       .  A
O133       Zr986   2.441       .  S
O134        C157   1.291       .  A
O134       Zr358   2.441       .  S
O135        C158   1.291       .  A
O135       Zr148   2.441       .  S
O136        C157   1.291       .  A
O136       Zr146   2.441       .  S
O137        C158   1.291       .  A
O137       Zr147   2.441       .  S
O138        C153   1.291       .  A
O138       Zr354   2.441       .  S
O139        C156   1.291       .  A
O139       Zr355   2.441       .  S
O140        C155   1.291       .  A
O140       Zr145   2.441       .  S
O141        C154   1.291       .  A
O141       Zr144   2.441       .  S
O142        C151   1.291       .  A
O142       Zr148   2.441   1_556  S
O143        C152   1.291       .  A
O143       Zr988   2.441       .  S
Zr144       O530   2.441   1_545  S
Zr144       O348   2.441   1_554  S
Zr144       O162   2.342       .  S
Zr144       O538   2.342   1_545  S
Zr144       O755   2.342   1_544  S
Zr144       O360   2.342   1_554  S
Zr145       O529   2.441   1_544  S
Zr145       O349   2.441   1_554  S
Zr145       O149   2.342       .  S
Zr145       O749   2.342   1_544  S
Zr145       O547   2.342   1_545  S
Zr145       O370   2.342   1_554  S
Zr146       O534   2.441   1_545  S
Zr146       O973   2.441   1_455  S
Zr146       O150   2.342       .  S
Zr146      O1379   2.342   1_445  S
Zr146       O545   2.342   1_545  S
Zr146      O1000   2.342   1_455  S
Zr147       O533   2.441   1_545  S
Zr147       O972   2.441   1_455  S
Zr147       O162   2.342       .  S
Zr147       O538   2.342   1_545  S
Zr147      O1387   2.342   1_445  S
Zr147       O989   2.342   1_455  S
Zr148       O344   2.441   1_554  S
Zr148       O983   2.441   1_455  S
Zr148       O162   2.342       .  S
Zr148       O989   2.342   1_455  S
Zr148       O360   2.342   1_554  S
Zr148      O1210   2.342   1_454  S
O149       Zr987   2.342       .  S
O149       Zr988   2.342       .  S
O150       Zr354   2.342       .  S
O150       Zr358   2.342       .  S
C151        C199   1.435       .  S
C152        C204   1.435       .  S
C153        C188   1.435       .  S
C154        C184   1.435       .  S
C155        C180   1.435       .  S
C156        C194   1.435       .  S
C157        C178   1.435       .  S
C158        C168   1.435       .  S
H159        O160   0.965       .  S
O160       Zr355   2.342       .  S
O160       Zr986   2.342       .  S
O160      Zr1198   2.342       .  S
H161        O162   0.965       .  S
C163        C164   1.206       .  T
C165        C166   1.205       .  T
C167        C168   1.206       .  T
C169        C170   1.205       .  T
C171        C172   1.206       .  T
C173        C174   1.205       .  T
C175        C176   1.205       .  T
C177        C178   1.206       .  T
C179        C180   1.206       .  T
C181        C182   1.205       .  T
C183        C184   1.206       .  T
C185        C186   1.205       .  T
C187        C188   1.206       .  T
C189        C190   1.205       .  T
C191        C192   1.205       .  T
C193        C194   1.206       .  T
C195        C196   1.206       .  T
C197        C198   1.205       .  T
C199        C200   1.206       .  T
C201        C202   1.205       .  T
C203        C204   1.206       .  T
C205        C206   1.205       .  T
C207        C208   1.205       .  T
C209        C210   1.206       .  T
C211        C212   1.405       .  A
C211        C216   1.405       .  A
C211        C419   1.439       .  S
C212        H217   1.084       .  S
C213        C214   1.398   1_556  A
C213        C418   1.438       .  S
C214        C215   1.398   1_554  A
C214        H218   1.086       .  S
C215        C415   1.438       .  S
C216        H219   1.084       .  S
C220        C221   1.405       .  A
C220        C225   1.405       .  A
C220        C413   1.439       .  S
C221        H226   1.084       .  S
C222        C223   1.398   1_554  A
C222        C417   1.438       .  S
C223        C224   1.398   1_556  A
C223        H227   1.086       .  S
C224        C411   1.438       .  S
C225        H228   1.084       .  S
C229        C230   1.405       .  A
C229        C234   1.405       .  A
C229        C410   1.439       .  S
C230        H235   1.084       .  S
C231        C232   1.398   1_556  A
C231        C412   1.438       .  S
C232        C233   1.398   1_554  A
C232        H236   1.086       .  S
C233        C407   1.438       .  S
C234        H237   1.084       .  S
C238        C239   1.405       .  A
C238        C243   1.405       .  A
C238        C406   1.439       .  S
C239        H244   1.084       .  S
C240        C241   1.398   1_554  A
C240        C416   1.438       .  S
C241        C242   1.398   1_556  A
C241        H245   1.086       .  S
C242        C408   1.438       .  S
C243        H246   1.084       .  S
C247        C248   1.405       .  A
C247        C252   1.405       .  A
C247        C403   1.439       .  S
C248        C249   1.400       .  A
C248        H253   1.084       .  S
C249        C250   1.398       .  A
C249        C401   1.438       .  S
C250        C251   1.398       .  A
C250        H254   1.086       .  S
C251        C252   1.400       .  A
C251        C400   1.438       .  S
C252        H255   1.084       .  S
C256        C257   1.405       .  A
C256        C261   1.405       .  A
C256        C397   1.439       .  S
C257        C258   1.400       .  A
C257        H262   1.084       .  S
C258        C259   1.398       .  A
C258        C402   1.438       .  S
C259        C260   1.398       .  A
C259        H263   1.086       .  S
C260        C261   1.400       .  A
C260        C395   1.438       .  S
C261        H264   1.084       .  S
C265        C266   1.405       .  A
C265        C270   1.405       .  A
C265        C393   1.439       .  S
C266        C267   1.400       .  A
C266        H271   1.084       .  S
C267        C268   1.398       .  A
C267        C391   1.438       .  S
C268        C269   1.398       .  A
C268        H272   1.086       .  S
C269        C270   1.400       .  A
C269        C396   1.438       .  S
C270        H273   1.084       .  S
C274        C275   1.405       .  A
C274        C279   1.405       .  A
C274        C389   1.439       .  S
C275        C276   1.400       .  A
C275        H280   1.084       .  S
C276        C277   1.398       .  A
C276        C399   1.438       .  S
C277        C278   1.398       .  A
C277        H281   1.086       .  S
C278        C279   1.400       .  A
C278        C392   1.438       .  S
C279        H282   1.084       .  S
C283        C284   1.405       .  A
C283        C288   1.405       .  A
C283        C387   1.439       .  S
C284        C285   1.400       .  A
C284        H289   1.084       .  S
C285        C286   1.398       .  A
C285        C385   1.438       .  S
C286        C287   1.398       .  A
C286        H290   1.086       .  S
C287        C288   1.400       .  A
C287        C383   1.438       .  S
C288        H291   1.084       .  S
C292        C293   1.405       .  A
C292        C297   1.405       .  A
C292        C381   1.439       .  S
C293        C294   1.400       .  A
C293        H298   1.084       .  S
C294        C295   1.398       .  A
C294        C386   1.438       .  S
C295        C296   1.398       .  A
C295        H299   1.086       .  S
C296        C297   1.400       .  A
C296        C380   1.438       .  S
C297        H300   1.084       .  S
C301        C302   1.405       .  A
C301        C306   1.405       .  A
C301        C377   1.439       .  S
C302        C303   1.400       .  A
C302        H307   1.084       .  S
C303        C304   1.398       .  A
C303        C384   1.438       .  S
C304        C305   1.398       .  A
C304        H308   1.086       .  S
C305        C306   1.400       .  A
C305        C376   1.438       .  S
C306        H309   1.084       .  S
C310        C311   1.405       .  A
C310        C315   1.405       .  A
C310        C374   1.439       .  S
C311        C312   1.400       .  A
C311        H316   1.084       .  S
C312        C313   1.398       .  A
C312        C379   1.438       .  S
C313        C314   1.398       .  A
C313        H317   1.086       .  S
C314        C315   1.400       .  A
C314        C375   1.438       .  S
C315        H318   1.084       .  S
O319        C330   1.291       .  A
O319       Zr775   2.441       .  S
O320        C331   1.291       .  A
O320       Zr774   2.441       .  S
O321        C332   1.291       .  A
O322        C333   1.291       .  A
O322       Zr327   2.441       .  S
O323        C333   1.291       .  A
O323       Zr777   2.441       .  S
O324        C332   1.291       .  A
O324       Zr776   2.441       .  S
O325        C331   1.291       .  A
O325       Zr327   2.441       .  S
O326        C330   1.291       .  A
O326      Zr1167   2.441       .  S
Zr327      O1166   2.441   1_455  S
Zr327       O328   2.342       .  S
Zr327       O959   2.342   1_455  S
Zr327      O1177   2.342   1_455  S
O328       Zr774   2.342       .  S
O328       Zr777   2.342       .  S
O329       Zr957   2.342   1_556  S
O329       Zr565   2.342   1_556  S
O329      Zr1616   2.342       .  S
C330        C420   1.435       .  S
C331        C405   1.435       .  S
C332        C382   1.435       .  S
C333        C373   1.435       .  S
H334        O335   0.965       .  S
O335       Zr564   2.342   1_556  S
O335       Zr776   2.342       .  S
H336        O337   0.965       .  S
O337      Zr1167   2.342       .  S
O337       Zr775   2.342       .  S
O337      Zr1617   2.342       .  S
O338        C361   1.291       .  A
O338       Zr354   2.441       .  S
O339        C362   1.291       .  A
O339       Zr355   2.441       .  S
O340        C363   1.291       .  A
O340       Zr356   2.441       .  S
O341        C364   1.291       .  A
O341       Zr357   2.441       .  S
O342        C365   1.291       .  A
O342      Zr1197   2.441       .  S
O343        C366   1.291       .  A
O343      Zr1196   2.441       .  S
O344        C367   1.291       .  A
O345        C368   1.291       .  A
O345       Zr358   2.441       .  S
O346        C367   1.291       .  A
O346       Zr356   2.441       .  S
O347        C368   1.291       .  A
O347       Zr357   2.441       .  S
O348        C363   1.291       .  A
O349        C366   1.291       .  A
O350        C365   1.291       .  A
O350       Zr355   2.441       .  S
O351        C364   1.291       .  A
O351       Zr354   2.441       .  S
O352        C361   1.291       .  A
O352       Zr358   2.441       .  S
O353        C362   1.291       .  A
O353      Zr1198   2.441       .  S
Zr354       O740   2.441   1_545  S
Zr354       O748   2.342   1_545  S
Zr354       O545   2.342   1_545  S
Zr354       O372   2.342       .  S
Zr355       O739   2.441   1_545  S
Zr355       O539   2.342   1_545  S
Zr355       O757   2.342   1_545  S
Zr355       O359   2.342       .  S
Zr356       O744   2.441   1_545  S
Zr356      O1183   2.441   1_455  S
Zr356      O1589   2.342   1_445  S
Zr356       O755   2.342   1_545  S
Zr356       O360   2.342       .  S
Zr356      O1210   2.342   1_455  S
Zr357       O743   2.441   1_545  S
Zr357      O1182   2.441   1_455  S
Zr357       O748   2.342   1_545  S
Zr357      O1597   2.342   1_445  S
Zr357      O1199   2.342   1_455  S
Zr357       O372   2.342       .  S
Zr358      O1193   2.441   1_455  S
Zr358      O1199   2.342   1_455  S
Zr358       O372   2.342       .  S
Zr358      O1000   2.342   1_455  S
O359      Zr1197   2.342       .  S
O359      Zr1198   2.342       .  S
C361        C409   1.435       .  S
C362        C414   1.435       .  S
C363        C398   1.435       .  S
C364        C394   1.435       .  S
C365        C390   1.435       .  S
C366        C404   1.435       .  S
C367        C388   1.435       .  S
C368        C378   1.435       .  S
H369        O370   0.965       .  S
O370      Zr1196   2.342       .  S
O370       Zr988   2.342   1_556  S
H371        O372   0.965       .  S
C373        C374   1.206       .  T
C375        C376   1.205       .  T
C377        C378   1.206       .  T
C379        C380   1.205       .  T
C381        C382   1.206       .  T
C383        C384   1.205       .  T
C385        C386   1.205       .  T
C387        C388   1.206       .  T
C389        C390   1.206       .  T
C391        C392   1.205       .  T
C393        C394   1.206       .  T
C395        C396   1.205       .  T
C397        C398   1.206       .  T
C399        C400   1.205       .  T
C401        C402   1.205       .  T
C403        C404   1.206       .  T
C405        C406   1.206       .  T
C407        C408   1.205   1_556  T
C409        C410   1.206       .  T
C411        C412   1.205   1_554  T
C413        C414   1.206       .  T
C415        C416   1.205   1_556  T
C417        C418   1.205   1_554  T
C419        C420   1.206       .  T
C421        C422   1.405       .  A
C421        C426   1.405       .  A
C421        C629   1.439       .  S
C422        C633   1.400       .  A
C422        H427   1.084       .  S
C423        C632   1.400       .  A
C423        C424   1.398       .  A
C423        C628   1.438       .  S
C424        C425   1.398       .  A
C424        H428   1.086       .  S
C425        C636   1.400       .  A
C425        C625   1.438       .  S
C426        C635   1.400       .  A
C426        H429   1.084       .  S
C430        C431   1.405       .  A
C430        C435   1.405       .  A
C430        C623   1.439       .  S
C431        C642   1.400       .  A
C431        H436   1.084       .  S
C432        C641   1.400       .  A
C432        C433   1.398       .  A
C432        C627   1.438       .  S
C433        C434   1.398       .  A
C433        H437   1.086       .  S
C434        C645   1.400       .  A
C434        C621   1.438       .  S
C435        C644   1.400       .  A
C435        H438   1.084       .  S
C439        C440   1.405       .  A
C439        C444   1.405       .  A
C439        C620   1.439       .  S
C440        C651   1.400       .  A
C440        H445   1.084       .  S
C441        C650   1.400       .  A
C441        C442   1.398       .  A
C441        C622   1.438       .  S
C442        C443   1.398       .  A
C442        H446   1.086       .  S
C443        C654   1.400       .  A
C443        C617   1.438       .  S
C444        C653   1.400       .  A
C444        H447   1.084       .  S
C448        C449   1.405       .  A
C448        C453   1.405       .  A
C448        C616   1.439       .  S
C449        C660   1.400       .  A
C449        H454   1.084       .  S
C450        C659   1.400       .  A
C450        C451   1.398       .  A
C450        C626   1.438       .  S
C451        C452   1.398       .  A
C451        H455   1.086       .  S
C452        C663   1.400       .  A
C452        C618   1.438       .  S
C453        C662   1.400       .  A
C453        H456   1.084       .  S
C457        C458   1.405       .  A
C457        C462   1.405       .  A
C457        C613   1.439       .  S
C458        C459   1.400       .  A
C458        H463   1.084       .  S
C459        C460   1.398       .  A
C459        C611   1.438       .  S
C460        C461   1.398       .  A
C460        H464   1.086       .  S
C461        C462   1.400       .  A
C461        C610   1.438       .  S
C462        H465   1.084       .  S
C466        C467   1.405       .  A
C466        C471   1.405       .  A
C466        C607   1.439       .  S
C467        C468   1.400       .  A
C467        H472   1.084       .  S
C468        C469   1.398       .  A
C468        C612   1.438       .  S
C469        C470   1.398       .  A
C469        H473   1.086       .  S
C470        C471   1.400       .  A
C470        C605   1.438       .  S
C471        H474   1.084       .  S
C475        C476   1.405       .  A
C475        C480   1.405       .  A
C475        C603   1.439       .  S
C476        C477   1.400       .  A
C476        H481   1.084       .  S
C477        C478   1.398       .  A
C477        C601   1.438       .  S
C478        C479   1.398       .  A
C478        H482   1.086       .  S
C479        C480   1.400       .  A
C479        C606   1.438       .  S
C480        H483   1.084       .  S
C484        C485   1.405       .  A
C484        C489   1.405       .  A
C484        C599   1.439       .  S
C485        C486   1.400       .  A
C485        H490   1.084       .  S
C486        C487   1.398       .  A
C486        C609   1.438       .  S
C487        C488   1.398       .  A
C487        H491   1.086       .  S
C488        C489   1.400       .  A
C488        C602   1.438       .  S
C489        H492   1.084       .  S
C493        C494   1.405       .  A
C493        C498   1.405       .  A
C493        C597   1.439       .  S
C494        C495   1.400       .  A
C494        H499   1.084       .  S
C495        C496   1.398       .  A
C495        C595   1.438       .  S
C496        C497   1.398       .  A
C496        H500   1.086       .  S
C497        C498   1.400       .  A
C497        C593   1.438       .  S
C498        H501   1.084       .  S
C502        C503   1.405       .  A
C502        C507   1.405       .  A
C502        C591   1.439       .  S
C503        C504   1.400       .  A
C503        H508   1.084       .  S
C504        C505   1.398       .  A
C504        C596   1.438       .  S
C505        C506   1.398       .  A
C505        H509   1.086       .  S
C506        C507   1.400       .  A
C506        C590   1.438       .  S
C507        H510   1.084       .  S
C511        C512   1.405       .  A
C511        C516   1.405       .  A
C511        C587   1.439       .  S
C512        C513   1.400       .  A
C512        H517   1.084       .  S
C513        C514   1.398       .  A
C513        C594   1.438       .  S
C514        C515   1.398       .  A
C514        H518   1.086       .  S
C515        C516   1.400       .  A
C515        C586   1.438       .  S
C516        H519   1.084       .  S
C520        C521   1.405       .  A
C520        C525   1.405       .  A
C520        C584   1.439       .  S
C521        C522   1.400       .  A
C521        H526   1.084       .  S
C522        C523   1.398       .  A
C522        C589   1.438       .  S
C523        C524   1.398       .  A
C523        H527   1.086       .  S
C524        C525   1.400       .  A
C524        C585   1.438       .  S
C525        H528   1.084       .  S
O529        C540   1.291       .  A
O530        C541   1.291       .  A
O531        C542   1.291       .  A
O531       Zr747   2.441       .  S
O532        C543   1.291       .  A
O532       Zr537   2.441       .  S
O533        C543   1.291       .  A
O534        C542   1.291       .  A
O535        C541   1.291       .  A
O535       Zr537   2.441       .  S
O536        C540   1.291       .  A
O536      Zr1377   2.441   1_556  S
Zr537       O741   2.441   1_554  S
Zr537      O1376   2.441   1_454  S
Zr537       O538   2.342       .  S
Zr537      O1589   2.342   1_454  S
Zr537      O1387   2.342   1_455  S
Zr537       O755   2.342   1_554  S
O539      Zr1587   2.342       .  S
O539       Zr986   2.342   1_565  S
C540        C630   1.435       .  S
C541        C615   1.435       .  S
C542        C592   1.435       .  S
C543        C583   1.435       .  S
H544        O545   0.965       .  S
O545       Zr747   2.342       .  S
H546        O547   0.965       .  S
O547      Zr1377   2.342       .  S
O547       Zr987   2.342   1_565  S
O548        C571   1.291       .  A
O548       Zr564   2.441   1_556  S
O549        C572   1.291       .  A
O549       Zr565   2.441       .  S
O550        C573   1.291       .  A
O550       Zr566   2.441       .  S
O551        C574   1.291       .  A
O551       Zr567   2.441       .  S
O552        C575   1.291       .  A
O552      Zr1407   2.441       .  S
O553        C576   1.291       .  A
O553      Zr1406   2.441       .  S
O554        C577   1.291       .  A
O554       Zr778   2.441       .  S
O555        C578   1.291       .  A
O555       Zr568   2.441       .  S
O556        C577   1.291       .  A
O556       Zr566   2.441       .  S
O557        C578   1.291       .  A
O557       Zr567   2.441       .  S
O558        C573   1.291       .  A
O558       Zr774   2.441       .  S
O559        C576   1.291       .  A
O559       Zr775   2.441       .  S
O560        C575   1.291       .  A
O560       Zr565   2.441       .  S
O561        C574   1.291       .  A
O561       Zr564   2.441       .  S
O562        C571   1.291       .  A
O562       Zr568   2.441   1_556  S
O563        C572   1.291       .  A
O563      Zr1408   2.441       .  S
Zr564       O768   2.441   1_554  S
Zr564       O780   2.342   1_554  S
Zr564       O582   2.342       .  S
Zr565       O769   2.441   1_554  S
Zr565       O569   2.342       .  S
Zr565       O790   2.342   1_554  S
Zr566      O1393   2.441   1_455  S
Zr566       O959   2.342   1_455  S
Zr566       O570   2.342       .  S
Zr566      O1420   2.342   1_455  S
Zr567      O1392   2.441   1_455  S
Zr567       O967   2.342   1_455  S
Zr567      O1409   2.342   1_455  S
Zr567       O582   2.342       .  S
Zr568       O764   2.441   1_554  S
Zr568      O1403   2.441   1_455  S
Zr568      O1409   2.342   1_455  S
Zr568       O780   2.342   1_554  S
Zr568       O582   2.342       .  S
Zr568      O1630   2.342   1_454  S
O569      Zr1407   2.342       .  S
O569      Zr1408   2.342       .  S
O570       Zr774   2.342       .  S
O570       Zr778   2.342       .  S
C571        C619   1.435       .  S
C572        C624   1.435       .  S
C573        C608   1.435       .  S
C574        C604   1.435       .  S
C575        C600   1.435       .  S
C576        C614   1.435       .  S
C577        C598   1.435       .  S
C578        C588   1.435       .  S
H579        O580   0.965       .  S
O580       Zr775   2.342       .  S
O580      Zr1406   2.342       .  S
O580      Zr1618   2.342       .  S
H581        O582   0.965       .  S
C583        C584   1.206       .  T
C585        C586   1.205       .  T
C587        C588   1.206       .  T
C589        C590   1.205       .  T
C591        C592   1.206       .  T
C593        C594   1.205       .  T
C595        C596   1.205       .  T
C597        C598   1.206       .  T
C599        C600   1.206       .  T
C601        C602   1.205       .  T
C603        C604   1.206       .  T
C605        C606   1.205       .  T
C607        C608   1.206       .  T
C609        C610   1.205       .  T
C611        C612   1.205       .  T
C613        C614   1.206       .  T
C615        C616   1.206       .  T
C617        C618   1.205       .  T
C619        C620   1.206       .  T
C621        C622   1.205       .  T
C623        C624   1.206       .  T
C625        C626   1.205       .  T
C627        C628   1.205       .  T
C629        C630   1.206       .  T
C631        C632   1.405       .  A
C631        C636   1.405       .  A
C631        C839   1.439       .  S
C632        H637   1.084       .  S
C633        C634   1.398   1_556  A
C633        C838   1.438       .  S
C634        C635   1.398   1_554  A
C634        H638   1.086       .  S
C635        C835   1.438       .  S
C636        H639   1.084       .  S
C640        C641   1.405       .  A
C640        C645   1.405       .  A
C640        C833   1.439       .  S
C641        H646   1.084       .  S
C642        C643   1.398   1_554  A
C642        C837   1.438       .  S
C643        C644   1.398   1_556  A
C643        H647   1.086       .  S
C644        C831   1.438       .  S
C645        H648   1.084       .  S
C649        C650   1.405       .  A
C649        C654   1.405       .  A
C649        C830   1.439       .  S
C650        H655   1.084       .  S
C651        C652   1.398   1_556  A
C651        C832   1.438       .  S
C652        C653   1.398   1_554  A
C652        H656   1.086       .  S
C653        C827   1.438       .  S
C654        H657   1.084       .  S
C658        C659   1.405       .  A
C658        C663   1.405       .  A
C658        C826   1.439       .  S
C659        H664   1.084       .  S
C660        C661   1.398   1_554  A
C660        C836   1.438       .  S
C661        C662   1.398   1_556  A
C661        H665   1.086       .  S
C662        C828   1.438       .  S
C663        H666   1.084       .  S
C667        C668   1.405       .  A
C667        C672   1.405       .  A
C667        C823   1.439       .  S
C668        C669   1.400       .  A
C668        H673   1.084       .  S
C669        C670   1.398       .  A
C669        C821   1.438       .  S
C670        C671   1.398       .  A
C670        H674   1.086       .  S
C671        C672   1.400       .  A
C671        C820   1.438       .  S
C672        H675   1.084       .  S
C676        C677   1.405       .  A
C676        C681   1.405       .  A
C676        C817   1.439       .  S
C677        C678   1.400       .  A
C677        H682   1.084       .  S
C678        C679   1.398       .  A
C678        C822   1.438       .  S
C679        C680   1.398       .  A
C679        H683   1.086       .  S
C680        C681   1.400       .  A
C680        C815   1.438       .  S
C681        H684   1.084       .  S
C685        C686   1.405       .  A
C685        C690   1.405       .  A
C685        C813   1.439       .  S
C686        C687   1.400       .  A
C686        H691   1.084       .  S
C687        C688   1.398       .  A
C687        C811   1.438       .  S
C688        C689   1.398       .  A
C688        H692   1.086       .  S
C689        C690   1.400       .  A
C689        C816   1.438       .  S
C690        H693   1.084       .  S
C694        C695   1.405       .  A
C694        C699   1.405       .  A
C694        C809   1.439       .  S
C695        C696   1.400       .  A
C695        H700   1.084       .  S
C696        C697   1.398       .  A
C696        C819   1.438       .  S
C697        C698   1.398       .  A
C697        H701   1.086       .  S
C698        C699   1.400       .  A
C698        C812   1.438       .  S
C699        H702   1.084       .  S
C703        C704   1.405       .  A
C703        C708   1.405       .  A
C703        C807   1.439       .  S
C704        C705   1.400       .  A
C704        H709   1.084       .  S
C705        C706   1.398       .  A
C705        C805   1.438       .  S
C706        C707   1.398       .  A
C706        H710   1.086       .  S
C707        C708   1.400       .  A
C707        C803   1.438       .  S
C708        H711   1.084       .  S
C712        C713   1.405       .  A
C712        C717   1.405       .  A
C712        C801   1.439       .  S
C713        C714   1.400       .  A
C713        H718   1.084       .  S
C714        C715   1.398       .  A
C714        C806   1.438       .  S
C715        C716   1.398       .  A
C715        H719   1.086       .  S
C716        C717   1.400       .  A
C716        C800   1.438       .  S
C717        H720   1.084       .  S
C721        C722   1.405       .  A
C721        C726   1.405       .  A
C721        C797   1.439       .  S
C722        C723   1.400       .  A
C722        H727   1.084       .  S
C723        C724   1.398       .  A
C723        C804   1.438       .  S
C724        C725   1.398       .  A
C724        H728   1.086       .  S
C725        C726   1.400       .  A
C725        C796   1.438       .  S
C726        H729   1.084       .  S
C730        C731   1.405       .  A
C730        C735   1.405       .  A
C730        C794   1.439       .  S
C731        C732   1.400       .  A
C731        H736   1.084       .  S
C732        C733   1.398       .  A
C732        C799   1.438       .  S
C733        C734   1.398       .  A
C733        H737   1.086       .  S
C734        C735   1.400       .  A
C734        C795   1.438       .  S
C735        H738   1.084       .  S
O739        C750   1.291       .  A
O740        C751   1.291       .  A
O741        C752   1.291       .  A
O742        C753   1.291       .  A
O742       Zr747   2.441       .  S
O743        C753   1.291       .  A
O744        C752   1.291       .  A
O745        C751   1.291       .  A
O745       Zr747   2.441       .  S
O746        C750   1.291       .  A
O746      Zr1587   2.441       .  S
Zr747      O1586   2.441   1_455  S
Zr747       O748   2.342       .  S
Zr747      O1379   2.342   1_455  S
Zr747      O1597   2.342   1_455  S
O749      Zr1377   2.342   1_556  S
O749      Zr1196   2.342   1_565  S
C750        C840   1.435       .  S
C751        C825   1.435       .  S
C752        C802   1.435       .  S
C753        C793   1.435       .  S
H754        O755   0.965       .  S
H756        O757   0.965       .  S
O757      Zr1587   2.342       .  S
O757      Zr1197   2.342   1_565  S
O758        C781   1.291       .  A
O758       Zr774   2.441       .  S
O759        C782   1.291       .  A
O759       Zr775   2.441       .  S
O760        C783   1.291       .  A
O760       Zr776   2.441       .  S
O761        C784   1.291       .  A
O761       Zr777   2.441       .  S
O762        C785   1.291       .  A
O762      Zr1617   2.441       .  S
O763        C786   1.291       .  A
O763      Zr1616   2.441       .  S
O764        C787   1.291       .  A
O765        C788   1.291       .  A
O765       Zr778   2.441       .  S
O766        C787   1.291       .  A
O766       Zr776   2.441       .  S
O767        C788   1.291       .  A
O767       Zr777   2.441       .  S
O768        C783   1.291       .  A
O769        C786   1.291       .  A
O770        C785   1.291       .  A
O770       Zr775   2.441       .  S
O771        C784   1.291       .  A
O771       Zr774   2.441       .  S
O772        C781   1.291       .  A
O772       Zr778   2.441       .  S
O773        C782   1.291       .  A
O773      Zr1618   2.441       .  S
Zr774       O792   2.342       .  S
Zr775       O779   2.342       .  S
Zr776      O1603   2.441   1_455  S
Zr776      O1169   2.342   1_455  S
Zr776       O780   2.342       .  S
Zr776      O1630   2.342   1_455  S
Zr777      O1602   2.441   1_455  S
Zr777      O1177   2.342   1_455  S
Zr777      O1619   2.342   1_455  S
Zr777       O792   2.342       .  S
Zr778      O1613   2.441   1_455  S
Zr778      O1619   2.342   1_455  S
Zr778       O792   2.342       .  S
Zr778      O1420   2.342   1_455  S
O779      Zr1617   2.342       .  S
O779      Zr1618   2.342       .  S
C781        C829   1.435       .  S
C782        C834   1.435       .  S
C783        C818   1.435       .  S
C784        C814   1.435       .  S
C785        C810   1.435       .  S
C786        C824   1.435       .  S
C787        C808   1.435       .  S
C788        C798   1.435       .  S
H789        O790   0.965       .  S
O790      Zr1616   2.342       .  S
O790      Zr1408   2.342   1_556  S
H791        O792   0.965       .  S
C793        C794   1.206       .  T
C795        C796   1.205       .  T
C797        C798   1.206       .  T
C799        C800   1.205       .  T
C801        C802   1.206       .  T
C803        C804   1.205       .  T
C805        C806   1.205       .  T
C807        C808   1.206       .  T
C809        C810   1.206       .  T
C811        C812   1.205       .  T
C813        C814   1.206       .  T
C815        C816   1.205       .  T
C817        C818   1.206       .  T
C819        C820   1.205       .  T
C821        C822   1.205       .  T
C823        C824   1.206       .  T
C825        C826   1.206       .  T
C827        C828   1.205   1_556  T
C829        C830   1.206       .  T
C831        C832   1.205   1_554  T
C833        C834   1.206       .  T
C835        C836   1.205   1_556  T
C837        C838   1.205   1_554  T
C839        C840   1.206       .  T
C841        C842   1.405       .  A
C841        C846   1.405       .  A
C841       C1049   1.439       .  S
C842       C1053   1.400       .  A
C842        H847   1.084       .  S
C843       C1052   1.400       .  A
C843        C844   1.398       .  A
C843       C1048   1.438       .  S
C844        C845   1.398       .  A
C844        H848   1.086       .  S
C845       C1056   1.400       .  A
C845       C1045   1.438       .  S
C846       C1055   1.400       .  A
C846        H849   1.084       .  S
C850        C851   1.405       .  A
C850        C855   1.405       .  A
C850       C1043   1.439       .  S
C851       C1062   1.400       .  A
C851        H856   1.084       .  S
C852       C1061   1.400       .  A
C852        C853   1.398       .  A
C852       C1047   1.438       .  S
C853        C854   1.398       .  A
C853        H857   1.086       .  S
C854       C1065   1.400       .  A
C854       C1041   1.438       .  S
C855       C1064   1.400       .  A
C855        H858   1.084       .  S
C859        C860   1.405       .  A
C859        C864   1.405       .  A
C859       C1040   1.439       .  S
C860       C1071   1.400       .  A
C860        H865   1.084       .  S
C861       C1070   1.400       .  A
C861        C862   1.398       .  A
C861       C1042   1.438       .  S
C862        C863   1.398       .  A
C862        H866   1.086       .  S
C863       C1074   1.400       .  A
C863       C1037   1.438       .  S
C864       C1073   1.400       .  A
C864        H867   1.084       .  S
C868        C869   1.405       .  A
C868        C873   1.405       .  A
C868       C1036   1.439       .  S
C869       C1080   1.400       .  A
C869        H874   1.084       .  S
C870       C1079   1.400       .  A
C870        C871   1.398       .  A
C870       C1046   1.438       .  S
C871        C872   1.398       .  A
C871        H875   1.086       .  S
C872       C1083   1.400       .  A
C872       C1038   1.438       .  S
C873       C1082   1.400       .  A
C873        H876   1.084       .  S
C877        C878   1.405       .  A
C877        C882   1.405       .  A
C877       C1033   1.439       .  S
C878        C879   1.400       .  A
C878        H883   1.084       .  S
C879        C880   1.398       .  A
C879       C1031   1.438       .  S
C880        C881   1.398       .  A
C880        H884   1.086       .  S
C881        C882   1.400       .  A
C881       C1030   1.438       .  S
C882        H885   1.084       .  S
C886        C887   1.405       .  A
C886        C891   1.405       .  A
C886       C1027   1.439       .  S
C887        C888   1.400       .  A
C887        H892   1.084       .  S
C888        C889   1.398       .  A
C888       C1032   1.438       .  S
C889        C890   1.398       .  A
C889        H893   1.086       .  S
C890        C891   1.400       .  A
C890       C1025   1.438       .  S
C891        H894   1.084       .  S
C895        C896   1.405       .  A
C895        C900   1.405       .  A
C895       C1023   1.439       .  S
C896        C897   1.400       .  A
C896        H901   1.084       .  S
C897        C898   1.398       .  A
C897       C1021   1.438       .  S
C898        C899   1.398       .  A
C898        H902   1.086       .  S
C899        C900   1.400       .  A
C899       C1026   1.438       .  S
C900        H903   1.084       .  S
C904        C905   1.405       .  A
C904        C909   1.405       .  A
C904       C1019   1.439       .  S
C905        C906   1.400       .  A
C905        H910   1.084       .  S
C906        C907   1.398       .  A
C906       C1029   1.438       .  S
C907        C908   1.398       .  A
C907        H911   1.086       .  S
C908        C909   1.400       .  A
C908       C1022   1.438       .  S
C909        H912   1.084       .  S
C913        C914   1.405       .  A
C913        C918   1.405       .  A
C913       C1017   1.439       .  S
C914        C915   1.400       .  A
C914        H919   1.084       .  S
C915        C916   1.398       .  A
C915       C1015   1.438       .  S
C916        C917   1.398       .  A
C916        H920   1.086       .  S
C917        C918   1.400       .  A
C917       C1013   1.438       .  S
C918        H921   1.084       .  S
C922        C923   1.405       .  A
C922        C927   1.405       .  A
C922       C1011   1.439       .  S
C923        C924   1.400       .  A
C923        H928   1.084       .  S
C924        C925   1.398       .  A
C924       C1016   1.438       .  S
C925        C926   1.398       .  A
C925        H929   1.086       .  S
C926        C927   1.400       .  A
C926       C1010   1.438       .  S
C927        H930   1.084       .  S
C931        C932   1.405       .  A
C931        C936   1.405       .  A
C931       C1007   1.439       .  S
C932        C933   1.400       .  A
C932        H937   1.084       .  S
C933        C934   1.398       .  A
C933       C1014   1.438       .  S
C934        C935   1.398       .  A
C934        H938   1.086       .  S
C935        C936   1.400       .  A
C935       C1006   1.438       .  S
C936        H939   1.084       .  S
C940        C941   1.405       .  A
C940        C945   1.405       .  A
C940       C1004   1.439       .  S
C941        C942   1.400       .  A
C941        H946   1.084       .  S
C942        C943   1.398       .  A
C942       C1009   1.438       .  S
C943        C944   1.398       .  A
C943        H947   1.086       .  S
C944        C945   1.400       .  A
C944       C1005   1.438       .  S
C945        H948   1.084       .  S
O949        C960   1.291       .  A
O949      Zr1405   2.441   1_556  S
O950        C961   1.291       .  A
O950      Zr1404   2.441       .  S
O951        C962   1.291       .  A
O951      Zr1167   2.441       .  S
O952        C963   1.291       .  A
O952       Zr957   2.441       .  S
O953        C963   1.291       .  A
O953      Zr1407   2.441       .  S
O954        C962   1.291       .  A
O954      Zr1406   2.441       .  S
O955        C961   1.291       .  A
O955       Zr957   2.441       .  S
O956        C960   1.291       .  A
Zr957      O1161   2.441   1_554  S
Zr957       O958   2.342       .  S
Zr957      O1175   2.342   1_554  S
O958      Zr1404   2.342       .  S
O958      Zr1407   2.342       .  S
O959      Zr1615   2.342       .  S
C960       C1050   1.435       .  S
C961       C1035   1.435       .  S
C962       C1012   1.435       .  S
C963       C1003   1.435       .  S
H964        O965   0.965       .  S
O965      Zr1167   2.342       .  S
O965      Zr1614   2.342       .  S
O965      Zr1406   2.342       .  S
H966        O967   0.965       .  S
O967      Zr1405   2.342       .  S
O968        C991   1.291       .  A
O968       Zr984   2.441   1_556  S
O969        C992   1.291       .  A
O969       Zr985   2.441       .  S
O970        C993   1.291       .  A
O970       Zr986   2.441       .  S
O971        C994   1.291       .  A
O971       Zr987   2.441       .  S
O972        C995   1.291       .  A
O973        C996   1.291       .  A
O974        C997   1.291       .  A
O974      Zr1198   2.441       .  S
O975        C998   1.291       .  A
O975       Zr988   2.441       .  S
O976        C997   1.291       .  A
O976       Zr986   2.441       .  S
O977        C998   1.291       .  A
O977       Zr987   2.441       .  S
O978        C993   1.291       .  A
O978      Zr1194   2.441       .  S
O979        C996   1.291       .  A
O979      Zr1195   2.441       .  S
O980        C995   1.291       .  A
O980       Zr985   2.441       .  S
O981        C994   1.291       .  A
O981       Zr984   2.441       .  S
O982        C991   1.291       .  A
O982       Zr988   2.441   1_556  S
O983        C992   1.291       .  A
Zr984      O1370   2.441   1_545  S
Zr984      O1188   2.441   1_554  S
Zr984      O1378   2.342   1_545  S
Zr984      O1595   2.342   1_544  S
Zr984      O1200   2.342   1_554  S
Zr984      O1002   2.342       .  S
Zr985      O1369   2.441   1_544  S
Zr985      O1189   2.441   1_554  S
Zr985      O1589   2.342   1_544  S
Zr985      O1387   2.342   1_545  S
Zr985       O989   2.342       .  S
Zr985      O1210   2.342   1_554  S
Zr986      O1374   2.441   1_545  S
Zr986      O1385   2.342   1_545  S
Zr986       O990   2.342       .  S
Zr987      O1373   2.441   1_545  S
Zr987      O1378   2.342   1_545  S
Zr987      O1002   2.342       .  S
Zr988      O1184   2.441   1_554  S
Zr988      O1200   2.342   1_554  S
Zr988      O1002   2.342       .  S
O990      Zr1194   2.342       .  S
O990      Zr1198   2.342       .  S
C991       C1039   1.435       .  S
C992       C1044   1.435       .  S
C993       C1028   1.435       .  S
C994       C1024   1.435       .  S
C995       C1020   1.435       .  S
C996       C1034   1.435       .  S
C997       C1018   1.435       .  S
C998       C1008   1.435       .  S
H999       O1000   0.965       .  S
O1000     Zr1195   2.342       .  S
H1001      O1002   0.965       .  S
C1003      C1004   1.206       .  T
C1005      C1006   1.205       .  T
C1007      C1008   1.206       .  T
C1009      C1010   1.205       .  T
C1011      C1012   1.206       .  T
C1013      C1014   1.205       .  T
C1015      C1016   1.205       .  T
C1017      C1018   1.206       .  T
C1019      C1020   1.206       .  T
C1021      C1022   1.205       .  T
C1023      C1024   1.206       .  T
C1025      C1026   1.205       .  T
C1027      C1028   1.206       .  T
C1029      C1030   1.205       .  T
C1031      C1032   1.205       .  T
C1033      C1034   1.206       .  T
C1035      C1036   1.206       .  T
C1037      C1038   1.205       .  T
C1039      C1040   1.206       .  T
C1041      C1042   1.205       .  T
C1043      C1044   1.206       .  T
C1045      C1046   1.205       .  T
C1047      C1048   1.205       .  T
C1049      C1050   1.206       .  T
C1051      C1052   1.405       .  A
C1051      C1056   1.405       .  A
C1051      C1259   1.439       .  S
C1052      H1057   1.084       .  S
C1053      C1054   1.398   1_556  A
C1053      C1258   1.438       .  S
C1054      C1055   1.398   1_554  A
C1054      H1058   1.086       .  S
C1055      C1255   1.438       .  S
C1056      H1059   1.084       .  S
C1060      C1061   1.405       .  A
C1060      C1065   1.405       .  A
C1060      C1253   1.439       .  S
C1061      H1066   1.084       .  S
C1062      C1063   1.398   1_554  A
C1062      C1257   1.438       .  S
C1063      C1064   1.398   1_556  A
C1063      H1067   1.086       .  S
C1064      C1251   1.438       .  S
C1065      H1068   1.084       .  S
C1069      C1070   1.405       .  A
C1069      C1074   1.405       .  A
C1069      C1250   1.439       .  S
C1070      H1075   1.084       .  S
C1071      C1072   1.398   1_556  A
C1071      C1252   1.438       .  S
C1072      C1073   1.398   1_554  A
C1072      H1076   1.086       .  S
C1073      C1247   1.438       .  S
C1074      H1077   1.084       .  S
C1078      C1079   1.405       .  A
C1078      C1083   1.405       .  A
C1078      C1246   1.439       .  S
C1079      H1084   1.084       .  S
C1080      C1081   1.398   1_554  A
C1080      C1256   1.438       .  S
C1081      C1082   1.398   1_556  A
C1081      H1085   1.086       .  S
C1082      C1248   1.438       .  S
C1083      H1086   1.084       .  S
C1087      C1088   1.405       .  A
C1087      C1092   1.405       .  A
C1087      C1243   1.439       .  S
C1088      C1089   1.400       .  A
C1088      H1093   1.084       .  S
C1089      C1090   1.398       .  A
C1089      C1241   1.438       .  S
C1090      C1091   1.398       .  A
C1090      H1094   1.086       .  S
C1091      C1092   1.400       .  A
C1091      C1240   1.438       .  S
C1092      H1095   1.084       .  S
C1096      C1097   1.405       .  A
C1096      C1101   1.405       .  A
C1096      C1237   1.439       .  S
C1097      C1098   1.400       .  A
C1097      H1102   1.084       .  S
C1098      C1099   1.398       .  A
C1098      C1242   1.438       .  S
C1099      C1100   1.398       .  A
C1099      H1103   1.086       .  S
C1100      C1101   1.400       .  A
C1100      C1235   1.438       .  S
C1101      H1104   1.084       .  S
C1105      C1106   1.405       .  A
C1105      C1110   1.405       .  A
C1105      C1233   1.439       .  S
C1106      C1107   1.400       .  A
C1106      H1111   1.084       .  S
C1107      C1108   1.398       .  A
C1107      C1231   1.438       .  S
C1108      C1109   1.398       .  A
C1108      H1112   1.086       .  S
C1109      C1110   1.400       .  A
C1109      C1236   1.438       .  S
C1110      H1113   1.084       .  S
C1114      C1115   1.405       .  A
C1114      C1119   1.405       .  A
C1114      C1229   1.439       .  S
C1115      C1116   1.400       .  A
C1115      H1120   1.084       .  S
C1116      C1117   1.398       .  A
C1116      C1239   1.438       .  S
C1117      C1118   1.398       .  A
C1117      H1121   1.086       .  S
C1118      C1119   1.400       .  A
C1118      C1232   1.438       .  S
C1119      H1122   1.084       .  S
C1123      C1124   1.405       .  A
C1123      C1128   1.405       .  A
C1123      C1227   1.439       .  S
C1124      C1125   1.400       .  A
C1124      H1129   1.084       .  S
C1125      C1126   1.398       .  A
C1125      C1225   1.438       .  S
C1126      C1127   1.398       .  A
C1126      H1130   1.086       .  S
C1127      C1128   1.400       .  A
C1127      C1223   1.438       .  S
C1128      H1131   1.084       .  S
C1132      C1133   1.405       .  A
C1132      C1137   1.405       .  A
C1132      C1221   1.439       .  S
C1133      C1134   1.400       .  A
C1133      H1138   1.084       .  S
C1134      C1135   1.398       .  A
C1134      C1226   1.438       .  S
C1135      C1136   1.398       .  A
C1135      H1139   1.086       .  S
C1136      C1137   1.400       .  A
C1136      C1220   1.438       .  S
C1137      H1140   1.084       .  S
C1141      C1142   1.405       .  A
C1141      C1146   1.405       .  A
C1141      C1217   1.439       .  S
C1142      C1143   1.400       .  A
C1142      H1147   1.084       .  S
C1143      C1144   1.398       .  A
C1143      C1224   1.438       .  S
C1144      C1145   1.398       .  A
C1144      H1148   1.086       .  S
C1145      C1146   1.400       .  A
C1145      C1216   1.438       .  S
C1146      H1149   1.084       .  S
C1150      C1151   1.405       .  A
C1150      C1155   1.405       .  A
C1150      C1214   1.439       .  S
C1151      C1152   1.400       .  A
C1151      H1156   1.084       .  S
C1152      C1153   1.398       .  A
C1152      C1219   1.438       .  S
C1153      C1154   1.398       .  A
C1153      H1157   1.086       .  S
C1154      C1155   1.400       .  A
C1154      C1215   1.438       .  S
C1155      H1158   1.084       .  S
O1159      C1170   1.291       .  A
O1159     Zr1615   2.441       .  S
O1160      C1171   1.291       .  A
O1160     Zr1614   2.441       .  S
O1161      C1172   1.291       .  A
O1162      C1173   1.291       .  A
O1162     Zr1167   2.441       .  S
O1163      C1173   1.291       .  A
O1163     Zr1617   2.441       .  S
O1164      C1172   1.291       .  A
O1164     Zr1616   2.441       .  S
O1165      C1171   1.291       .  A
O1165     Zr1167   2.441       .  S
O1166      C1170   1.291       .  A
Zr1167     O1168   2.342       .  S
O1168     Zr1614   2.342       .  S
O1168     Zr1617   2.342       .  S
O1169     Zr1405   2.342   1_556  S
C1170      C1260   1.435       .  S
C1171      C1245   1.435       .  S
C1172      C1222   1.435       .  S
C1173      C1213   1.435       .  S
H1174      O1175   0.965       .  S
O1175     Zr1404   2.342   1_556  S
O1175     Zr1616   2.342       .  S
H1176      O1177   0.965       .  S
O1177     Zr1615   2.342       .  S
O1178      C1201   1.291       .  A
O1178     Zr1194   2.441       .  S
O1179      C1202   1.291       .  A
O1179     Zr1195   2.441       .  S
O1180      C1203   1.291       .  A
O1180     Zr1196   2.441       .  S
O1181      C1204   1.291       .  A
O1181     Zr1197   2.441       .  S
O1182      C1205   1.291       .  A
O1183      C1206   1.291       .  A
O1184      C1207   1.291       .  A
O1185      C1208   1.291       .  A
O1185     Zr1198   2.441       .  S
O1186      C1207   1.291       .  A
O1186     Zr1196   2.441       .  S
O1187      C1208   1.291       .  A
O1187     Zr1197   2.441       .  S
O1188      C1203   1.291       .  A
O1189      C1206   1.291       .  A
O1190      C1205   1.291       .  A
O1190     Zr1195   2.441       .  S
O1191      C1204   1.291       .  A
O1191     Zr1194   2.441       .  S
O1192      C1201   1.291       .  A
O1192     Zr1198   2.441       .  S
O1193      C1202   1.291       .  A
Zr1194     O1580   2.441   1_545  S
Zr1194     O1588   2.342   1_545  S
Zr1194     O1385   2.342   1_545  S
Zr1194     O1212   2.342       .  S
Zr1195     O1579   2.441   1_545  S
Zr1195     O1379   2.342   1_545  S
Zr1195     O1597   2.342   1_545  S
Zr1195     O1199   2.342       .  S
Zr1196     O1584   2.441   1_545  S
Zr1196     O1595   2.342   1_545  S
Zr1196     O1200   2.342       .  S
Zr1197     O1583   2.441   1_545  S
Zr1197     O1588   2.342   1_545  S
Zr1197     O1212   2.342       .  S
Zr1198     O1212   2.342       .  S
C1201      C1249   1.435       .  S
C1202      C1254   1.435       .  S
C1203      C1238   1.435       .  S
C1204      C1234   1.435       .  S
C1205      C1230   1.435       .  S
C1206      C1244   1.435       .  S
C1207      C1228   1.435       .  S
C1208      C1218   1.435       .  S
H1209      O1210   0.965       .  S
H1211      O1212   0.965       .  S
C1213      C1214   1.206       .  T
C1215      C1216   1.205       .  T
C1217      C1218   1.206       .  T
C1219      C1220   1.205       .  T
C1221      C1222   1.206       .  T
C1223      C1224   1.205       .  T
C1225      C1226   1.205       .  T
C1227      C1228   1.206       .  T
C1229      C1230   1.206       .  T
C1231      C1232   1.205       .  T
C1233      C1234   1.206       .  T
C1235      C1236   1.205       .  T
C1237      C1238   1.206       .  T
C1239      C1240   1.205       .  T
C1241      C1242   1.205       .  T
C1243      C1244   1.206       .  T
C1245      C1246   1.206       .  T
C1247      C1248   1.205   1_556  T
C1249      C1250   1.206       .  T
C1251      C1252   1.205   1_554  T
C1253      C1254   1.206       .  T
C1255      C1256   1.205   1_556  T
C1257      C1258   1.205   1_554  T
C1259      C1260   1.206       .  T
C1261      C1262   1.405       .  A
C1261      C1266   1.405       .  A
C1261      C1469   1.439       .  S
C1262      C1473   1.400       .  A
C1262      H1267   1.084       .  S
C1263      C1472   1.400       .  A
C1263      C1264   1.398       .  A
C1263      C1468   1.438       .  S
C1264      C1265   1.398       .  A
C1264      H1268   1.086       .  S
C1265      C1476   1.400       .  A
C1265      C1465   1.438       .  S
C1266      C1475   1.400       .  A
C1266      H1269   1.084       .  S
C1270      C1271   1.405       .  A
C1270      C1275   1.405       .  A
C1270      C1463   1.439       .  S
C1271      C1482   1.400       .  A
C1271      H1276   1.084       .  S
C1272      C1481   1.400       .  A
C1272      C1273   1.398       .  A
C1272      C1467   1.438       .  S
C1273      C1274   1.398       .  A
C1273      H1277   1.086       .  S
C1274      C1485   1.400       .  A
C1274      C1461   1.438       .  S
C1275      C1484   1.400       .  A
C1275      H1278   1.084       .  S
C1279      C1280   1.405       .  A
C1279      C1284   1.405       .  A
C1279      C1460   1.439       .  S
C1280      C1491   1.400       .  A
C1280      H1285   1.084       .  S
C1281      C1490   1.400       .  A
C1281      C1282   1.398       .  A
C1281      C1462   1.438       .  S
C1282      C1283   1.398       .  A
C1282      H1286   1.086       .  S
C1283      C1494   1.400       .  A
C1283      C1457   1.438       .  S
C1284      C1493   1.400       .  A
C1284      H1287   1.084       .  S
C1288      C1289   1.405       .  A
C1288      C1293   1.405       .  A
C1288      C1456   1.439       .  S
C1289      C1500   1.400       .  A
C1289      H1294   1.084       .  S
C1290      C1499   1.400       .  A
C1290      C1291   1.398       .  A
C1290      C1466   1.438       .  S
C1291      C1292   1.398       .  A
C1291      H1295   1.086       .  S
C1292      C1503   1.400       .  A
C1292      C1458   1.438       .  S
C1293      C1502   1.400       .  A
C1293      H1296   1.084       .  S
C1297      C1298   1.405       .  A
C1297      C1302   1.405       .  A
C1297      C1453   1.439       .  S
C1298      C1299   1.400       .  A
C1298      H1303   1.084       .  S
C1299      C1300   1.398       .  A
C1299      C1451   1.438       .  S
C1300      C1301   1.398       .  A
C1300      H1304   1.086       .  S
C1301      C1302   1.400       .  A
C1301      C1450   1.438       .  S
C1302      H1305   1.084       .  S
C1306      C1307   1.405       .  A
C1306      C1311   1.405       .  A
C1306      C1447   1.439       .  S
C1307      C1308   1.400       .  A
C1307      H1312   1.084       .  S
C1308      C1309   1.398       .  A
C1308      C1452   1.438       .  S
C1309      C1310   1.398       .  A
C1309      H1313   1.086       .  S
C1310      C1311   1.400       .  A
C1310      C1445   1.438       .  S
C1311      H1314   1.084       .  S
C1315      C1316   1.405       .  A
C1315      C1320   1.405       .  A
C1315      C1443   1.439       .  S
C1316      C1317   1.400       .  A
C1316      H1321   1.084       .  S
C1317      C1318   1.398       .  A
C1317      C1441   1.438       .  S
C1318      C1319   1.398       .  A
C1318      H1322   1.086       .  S
C1319      C1320   1.400       .  A
C1319      C1446   1.438       .  S
C1320      H1323   1.084       .  S
C1324      C1325   1.405       .  A
C1324      C1329   1.405       .  A
C1324      C1439   1.439       .  S
C1325      C1326   1.400       .  A
C1325      H1330   1.084       .  S
C1326      C1327   1.398       .  A
C1326      C1449   1.438       .  S
C1327      C1328   1.398       .  A
C1327      H1331   1.086       .  S
C1328      C1329   1.400       .  A
C1328      C1442   1.438       .  S
C1329      H1332   1.084       .  S
C1333      C1334   1.405       .  A
C1333      C1338   1.405       .  A
C1333      C1437   1.439       .  S
C1334      C1335   1.400       .  A
C1334      H1339   1.084       .  S
C1335      C1336   1.398       .  A
C1335      C1435   1.438       .  S
C1336      C1337   1.398       .  A
C1336      H1340   1.086       .  S
C1337      C1338   1.400       .  A
C1337      C1433   1.438       .  S
C1338      H1341   1.084       .  S
C1342      C1343   1.405       .  A
C1342      C1347   1.405       .  A
C1342      C1431   1.439       .  S
C1343      C1344   1.400       .  A
C1343      H1348   1.084       .  S
C1344      C1345   1.398       .  A
C1344      C1436   1.438       .  S
C1345      C1346   1.398       .  A
C1345      H1349   1.086       .  S
C1346      C1347   1.400       .  A
C1346      C1430   1.438       .  S
C1347      H1350   1.084       .  S
C1351      C1352   1.405       .  A
C1351      C1356   1.405       .  A
C1351      C1427   1.439       .  S
C1352      C1353   1.400       .  A
C1352      H1357   1.084       .  S
C1353      C1354   1.398       .  A
C1353      C1434   1.438       .  S
C1354      C1355   1.398       .  A
C1354      H1358   1.086       .  S
C1355      C1356   1.400       .  A
C1355      C1426   1.438       .  S
C1356      H1359   1.084       .  S
C1360      C1361   1.405       .  A
C1360      C1365   1.405       .  A
C1360      C1424   1.439       .  S
C1361      C1362   1.400       .  A
C1361      H1366   1.084       .  S
C1362      C1363   1.398       .  A
C1362      C1429   1.438       .  S
C1363      C1364   1.398       .  A
C1363      H1367   1.086       .  S
C1364      C1365   1.400       .  A
C1364      C1425   1.438       .  S
C1365      H1368   1.084       .  S
O1369      C1380   1.291       .  A
O1370      C1381   1.291       .  A
O1371      C1382   1.291       .  A
O1371     Zr1587   2.441       .  S
O1372      C1383   1.291       .  A
O1372     Zr1377   2.441       .  S
O1373      C1383   1.291       .  A
O1374      C1382   1.291       .  A
O1375      C1381   1.291       .  A
O1375     Zr1377   2.441       .  S
O1376      C1380   1.291       .  A
Zr1377     O1581   2.441   1_554  S
Zr1377     O1378   2.342       .  S
Zr1377     O1595   2.342   1_554  S
C1380      C1470   1.435       .  S
C1381      C1455   1.435       .  S
C1382      C1432   1.435       .  S
C1383      C1423   1.435       .  S
H1384      O1385   0.965       .  S
O1385     Zr1587   2.342       .  S
H1386      O1387   0.965       .  S
O1388      C1411   1.291       .  A
O1388     Zr1404   2.441   1_556  S
O1389      C1412   1.291       .  A
O1389     Zr1405   2.441       .  S
O1390      C1413   1.291       .  A
O1390     Zr1406   2.441       .  S
O1391      C1414   1.291       .  A
O1391     Zr1407   2.441       .  S
O1392      C1415   1.291       .  A
O1393      C1416   1.291       .  A
O1394      C1417   1.291       .  A
O1394     Zr1618   2.441       .  S
O1395      C1418   1.291       .  A
O1395     Zr1408   2.441       .  S
O1396      C1417   1.291       .  A
O1396     Zr1406   2.441       .  S
O1397      C1418   1.291       .  A
O1397     Zr1407   2.441       .  S
O1398      C1413   1.291       .  A
O1398     Zr1614   2.441       .  S
O1399      C1416   1.291       .  A
O1399     Zr1615   2.441       .  S
O1400      C1415   1.291       .  A
O1400     Zr1405   2.441       .  S
O1401      C1414   1.291       .  A
O1401     Zr1404   2.441       .  S
O1402      C1411   1.291       .  A
O1402     Zr1408   2.441   1_556  S
O1403      C1412   1.291       .  A
Zr1404     O1608   2.441   1_554  S
Zr1404     O1620   2.342   1_554  S
Zr1404     O1422   2.342       .  S
Zr1405     O1609   2.441   1_554  S
Zr1405     O1409   2.342       .  S
Zr1405     O1630   2.342   1_554  S
Zr1406     O1410   2.342       .  S
Zr1407     O1422   2.342       .  S
Zr1408     O1604   2.441   1_554  S
Zr1408     O1620   2.342   1_554  S
Zr1408     O1422   2.342       .  S
O1410     Zr1614   2.342       .  S
O1410     Zr1618   2.342       .  S
C1411      C1459   1.435       .  S
C1412      C1464   1.435       .  S
C1413      C1448   1.435       .  S
C1414      C1444   1.435       .  S
C1415      C1440   1.435       .  S
C1416      C1454   1.435       .  S
C1417      C1438   1.435       .  S
C1418      C1428   1.435       .  S
H1419      O1420   0.965       .  S
O1420     Zr1615   2.342       .  S
H1421      O1422   0.965       .  S
C1423      C1424   1.206       .  T
C1425      C1426   1.205       .  T
C1427      C1428   1.206       .  T
C1429      C1430   1.205       .  T
C1431      C1432   1.206       .  T
C1433      C1434   1.205       .  T
C1435      C1436   1.205       .  T
C1437      C1438   1.206       .  T
C1439      C1440   1.206       .  T
C1441      C1442   1.205       .  T
C1443      C1444   1.206       .  T
C1445      C1446   1.205       .  T
C1447      C1448   1.206       .  T
C1449      C1450   1.205       .  T
C1451      C1452   1.205       .  T
C1453      C1454   1.206       .  T
C1455      C1456   1.206       .  T
C1457      C1458   1.205       .  T
C1459      C1460   1.206       .  T
C1461      C1462   1.205       .  T
C1463      C1464   1.206       .  T
C1465      C1466   1.205       .  T
C1467      C1468   1.205       .  T
C1469      C1470   1.206       .  T
C1471      C1472   1.405       .  A
C1471      C1476   1.405       .  A
C1471      C1679   1.439       .  S
C1472      H1477   1.084       .  S
C1473      C1474   1.398   1_556  A
C1473      C1678   1.438       .  S
C1474      C1475   1.398   1_554  A
C1474      H1478   1.086       .  S
C1475      C1675   1.438       .  S
C1476      H1479   1.084       .  S
C1480      C1481   1.405       .  A
C1480      C1485   1.405       .  A
C1480      C1673   1.439       .  S
C1481      H1486   1.084       .  S
C1482      C1483   1.398   1_554  A
C1482      C1677   1.438       .  S
C1483      C1484   1.398   1_556  A
C1483      H1487   1.086       .  S
C1484      C1671   1.438       .  S
C1485      H1488   1.084       .  S
C1489      C1490   1.405       .  A
C1489      C1494   1.405       .  A
C1489      C1670   1.439       .  S
C1490      H1495   1.084       .  S
C1491      C1492   1.398   1_556  A
C1491      C1672   1.438       .  S
C1492      C1493   1.398   1_554  A
C1492      H1496   1.086       .  S
C1493      C1667   1.438       .  S
C1494      H1497   1.084       .  S
C1498      C1499   1.405       .  A
C1498      C1503   1.405       .  A
C1498      C1666   1.439       .  S
C1499      H1504   1.084       .  S
C1500      C1501   1.398   1_554  A
C1500      C1676   1.438       .  S
C1501      C1502   1.398   1_556  A
C1501      H1505   1.086       .  S
C1502      C1668   1.438       .  S
C1503      H1506   1.084       .  S
C1507      C1508   1.405       .  A
C1507      C1512   1.405       .  A
C1507      C1663   1.439       .  S
C1508      C1509   1.400       .  A
C1508      H1513   1.084       .  S
C1509      C1510   1.398       .  A
C1509      C1661   1.438       .  S
C1510      C1511   1.398       .  A
C1510      H1514   1.086       .  S
C1511      C1512   1.400       .  A
C1511      C1660   1.438       .  S
C1512      H1515   1.084       .  S
C1516      C1517   1.405       .  A
C1516      C1521   1.405       .  A
C1516      C1657   1.439       .  S
C1517      C1518   1.400       .  A
C1517      H1522   1.084       .  S
C1518      C1519   1.398       .  A
C1518      C1662   1.438       .  S
C1519      C1520   1.398       .  A
C1519      H1523   1.086       .  S
C1520      C1521   1.400       .  A
C1520      C1655   1.438       .  S
C1521      H1524   1.084       .  S
C1525      C1526   1.405       .  A
C1525      C1530   1.405       .  A
C1525      C1653   1.439       .  S
C1526      C1527   1.400       .  A
C1526      H1531   1.084       .  S
C1527      C1528   1.398       .  A
C1527      C1651   1.438       .  S
C1528      C1529   1.398       .  A
C1528      H1532   1.086       .  S
C1529      C1530   1.400       .  A
C1529      C1656   1.438       .  S
C1530      H1533   1.084       .  S
C1534      C1535   1.405       .  A
C1534      C1539   1.405       .  A
C1534      C1649   1.439       .  S
C1535      C1536   1.400       .  A
C1535      H1540   1.084       .  S
C1536      C1537   1.398       .  A
C1536      C1659   1.438       .  S
C1537      C1538   1.398       .  A
C1537      H1541   1.086       .  S
C1538      C1539   1.400       .  A
C1538      C1652   1.438       .  S
C1539      H1542   1.084       .  S
C1543      C1544   1.405       .  A
C1543      C1548   1.405       .  A
C1543      C1647   1.439       .  S
C1544      C1545   1.400       .  A
C1544      H1549   1.084       .  S
C1545      C1546   1.398       .  A
C1545      C1645   1.438       .  S
C1546      C1547   1.398       .  A
C1546      H1550   1.086       .  S
C1547      C1548   1.400       .  A
C1547      C1643   1.438       .  S
C1548      H1551   1.084       .  S
C1552      C1553   1.405       .  A
C1552      C1557   1.405       .  A
C1552      C1641   1.439       .  S
C1553      C1554   1.400       .  A
C1553      H1558   1.084       .  S
C1554      C1555   1.398       .  A
C1554      C1646   1.438       .  S
C1555      C1556   1.398       .  A
C1555      H1559   1.086       .  S
C1556      C1557   1.400       .  A
C1556      C1640   1.438       .  S
C1557      H1560   1.084       .  S
C1561      C1562   1.405       .  A
C1561      C1566   1.405       .  A
C1561      C1637   1.439       .  S
C1562      C1563   1.400       .  A
C1562      H1567   1.084       .  S
C1563      C1564   1.398       .  A
C1563      C1644   1.438       .  S
C1564      C1565   1.398       .  A
C1564      H1568   1.086       .  S
C1565      C1566   1.400       .  A
C1565      C1636   1.438       .  S
C1566      H1569   1.084       .  S
C1570      C1571   1.405       .  A
C1570      C1575   1.405       .  A
C1570      C1634   1.439       .  S
C1571      C1572   1.400       .  A
C1571      H1576   1.084       .  S
C1572      C1573   1.398       .  A
C1572      C1639   1.438       .  S
C1573      C1574   1.398       .  A
C1573      H1577   1.086       .  S
C1574      C1575   1.400       .  A
C1574      C1635   1.438       .  S
C1575      H1578   1.084       .  S
O1579      C1590   1.291       .  A
O1580      C1591   1.291       .  A
O1581      C1592   1.291       .  A
O1582      C1593   1.291       .  A
O1582     Zr1587   2.441       .  S
O1583      C1593   1.291       .  A
O1584      C1592   1.291       .  A
O1585      C1591   1.291       .  A
O1585     Zr1587   2.441       .  S
O1586      C1590   1.291       .  A
Zr1587     O1588   2.342       .  S
C1590      C1680   1.435       .  S
C1591      C1665   1.435       .  S
C1592      C1642   1.435       .  S
C1593      C1633   1.435       .  S
H1594      O1595   0.965       .  S
H1596      O1597   0.965       .  S
O1598      C1621   1.291       .  A
O1598     Zr1614   2.441       .  S
O1599      C1622   1.291       .  A
O1599     Zr1615   2.441       .  S
O1600      C1623   1.291       .  A
O1600     Zr1616   2.441       .  S
O1601      C1624   1.291       .  A
O1601     Zr1617   2.441       .  S
O1602      C1625   1.291       .  A
O1603      C1626   1.291       .  A
O1604      C1627   1.291       .  A
O1605      C1628   1.291       .  A
O1605     Zr1618   2.441       .  S
O1606      C1627   1.291       .  A
O1606     Zr1616   2.441       .  S
O1607      C1628   1.291       .  A
O1607     Zr1617   2.441       .  S
O1608      C1623   1.291       .  A
O1609      C1626   1.291       .  A
O1610      C1625   1.291       .  A
O1610     Zr1615   2.441       .  S
O1611      C1624   1.291       .  A
O1611     Zr1614   2.441       .  S
O1612      C1621   1.291       .  A
O1612     Zr1618   2.441       .  S
O1613      C1622   1.291       .  A
Zr1614     O1632   2.342       .  S
Zr1615     O1619   2.342       .  S
Zr1616     O1620   2.342       .  S
Zr1617     O1632   2.342       .  S
Zr1618     O1632   2.342       .  S
C1621      C1669   1.435       .  S
C1622      C1674   1.435       .  S
C1623      C1658   1.435       .  S
C1624      C1654   1.435       .  S
C1625      C1650   1.435       .  S
C1626      C1664   1.435       .  S
C1627      C1648   1.435       .  S
C1628      C1638   1.435       .  S
H1629      O1630   0.965       .  S
H1631      O1632   0.965       .  S
C1633      C1634   1.206       .  T
C1635      C1636   1.205       .  T
C1637      C1638   1.206       .  T
C1639      C1640   1.205       .  T
C1641      C1642   1.206       .  T
C1643      C1644   1.205       .  T
C1645      C1646   1.205       .  T
C1647      C1648   1.206       .  T
C1649      C1650   1.206       .  T
C1651      C1652   1.205       .  T
C1653      C1654   1.206       .  T
C1655      C1656   1.205       .  T
C1657      C1658   1.206       .  T
C1659      C1660   1.205       .  T
C1661      C1662   1.205       .  T
C1663      C1664   1.206       .  T
C1665      C1666   1.206       .  T
C1667      C1668   1.205   1_556  T
C1669      C1670   1.206       .  T
C1671      C1672   1.205   1_554  T
C1673      C1674   1.206       .  T
C1675      C1676   1.205   1_556  T
C1677      C1678   1.205   1_554  T
C1679      C1680   1.206       .  T
