geometry optimzed in LAMMPS
_audit_creation_date              2020-12-01 
_audit_creation_method            'lammps2cif' 
_symmetry_space_group_name_H-M    'P1' 
_symmetry_Int_Tables_number       1 
_symmetry_cell_setting            triclinic 
loop_ 
_symmetry_equiv_pos_as_xyz 
  x,y,z 
_cell_length_a                    38.98956416 
_cell_length_b                    40.38669261235099 
_cell_length_c                    38.51291185567279 
_cell_angle_alpha                 88.44366996703619 
_cell_angle_beta                  95.84563975921017 
_cell_angle_gamma                 88.5112301223292 
loop_ 
_atom_site_label 
_atom_site_type_symbol 
_atom_site_fract_x 
_atom_site_fract_y 
_atom_site_fract_z 
_atom_site_charge 
C1          C  0.41220182  0.34849830  0.35527400     0.84500
C2          C  0.42947663  0.37173399  0.38240857    -0.55700
C3          C  0.40762939  0.38774835  0.40252481     0.07400
C4          C  0.36905980  0.37885040  0.39346622     0.18400
C5          C  0.39124060  0.32468190  0.37732802    -0.56500
C6          C  0.36862971  0.33987214  0.39791863     0.07500
C7          C  0.38430317  0.37144635  0.33410497    -0.56000
C8          C  0.36166956  0.38794150  0.35333402     0.08100
H9          H  0.45689845  0.37646685  0.38431763     0.12600
H10         H  0.35131976  0.39205223  0.40955406    -0.01700
H11         H  0.39432290  0.29792092  0.37672811     0.12900
H12         H  0.38372068  0.37568366  0.30609280     0.12700
C13         C  0.09490457  0.11917893  0.09618713     0.84500
C14         C  0.11502362  0.14589841  0.07820725    -0.55700
C15         C  0.13600711  0.16508755  0.09987662     0.07400
C16         C  0.13365515  0.15447771  0.14041235     0.18400
C17         C  0.12240770  0.09876311  0.11994088    -0.56500
C18         C  0.14290254  0.11572619  0.14397025     0.07500
C19         C  0.07453629  0.13817159  0.12167589    -0.56000
C20         C  0.09338304  0.15664570  0.14563069     0.08100
H21         H  0.11322267  0.14892065  0.04997850     0.12600
H22         H  0.14976925  0.16941058  0.15916820    -0.01700
H23         H  0.12440512  0.07194344  0.11869438     0.12900
H24         H  0.04670614  0.13654480  0.12110780     0.12700
N25         N  0.02381267  0.52438414  0.42419324    -0.08100
N26         N  0.04509497  0.52187677  0.39998798    -0.60200
N27         N  0.45995171  0.06849216  0.44960859    -0.07800
N28         N  0.43658496  0.09275193  0.44509388    -0.62400
N29         N  0.98984729  0.07993449  0.46250014    -0.07400
N30         N  0.98705853  0.11202967  0.46715417    -0.60200
N31         N  0.99382294  0.51219726  0.41298174    -0.07100
N32         N  0.99395544  0.50120104  0.38110154    -0.62700
C33         C  0.02601636  0.50766106  0.37356604     0.94100
C34         C  0.95354723  0.11967087  0.45653297     0.93800
N35         N  0.40902963  0.00786529  0.50453555    -0.08300
N36         N  0.39504356  0.02969586  0.02443207    -0.60800
N37         N  0.44017404  0.46226942  0.43911346    -0.06400
N38         N  0.42930150  0.44522560  0.41144051    -0.62100
N39         N  0.43797382  0.44484302  0.46808219    -0.08300
N40         N  0.42551940  0.41521093  0.46044044    -0.61100
N41         N  0.40651507  0.01961605  0.47222137    -0.06100
N42         N  0.38853499  0.04748146  0.46907392    -0.62200
Mn43       Mn  0.45007113  0.01537870  0.44236101     1.18400
C44         C  0.38212957  0.05425201  0.50160714     0.96100
C45         C  0.42017586  0.41580492  0.42489274     0.96800
N46         N  0.04829818  0.07116774  0.02822371    -0.08400
N47         N  0.06577444  0.09833680  0.03663129    -0.64700
N48         N  0.07717024  0.49616489  0.02272016    -0.07200
N49         N  0.09574919  0.46870677  0.02629005    -0.65300
N50         N  0.07550400  0.50817845  0.49058077    -0.07900
N51         N  0.09117329  0.48707335  0.47103611    -0.64900
N52         N  0.04444944  0.05377661  0.05680043    -0.06800
N53         N  0.05865548  0.06850895  0.08474705    -0.65600
Mn54       Mn  0.03528722  0.04710922  0.47549662     1.10700
C55         C  0.07185115  0.09657374  0.07228396     0.97400
C56         C  0.10402689  0.46260887  0.99419142     0.97400
N57         N  0.49426752  0.43613835  0.03442421    -0.07900
N58         N  0.49717727  0.40361230  0.03263905    -0.63200
N59         N  0.49026990  0.00478971  0.08204236    -0.07200
N60         N  0.49123463  0.01480197  0.11429277    -0.60000
N61         N  0.46022278  0.99234868  0.07155780    -0.08500
N62         N  0.43993148  0.99364324  0.09683291    -0.62800
N63         N  0.52404236  0.44837266  0.04633700    -0.07500
N64         N  0.04757331  0.42456594  0.05269089    -0.60000
Mn65       Mn  0.44924953  0.46916684  0.02034712     1.20200
Mn66       Mn  0.03375995  0.50114324  0.05268780     1.10100
Cl67       Cl  0.49203714  0.00823129  0.49765958    -0.88000
C68         C  0.53081783  0.39687581  0.04378503     0.94400
C69         C  0.45978388  0.00766985  0.12292236     0.94200
N70         N  0.31139102  0.20922126  0.53958180    -0.08100
N71         N  0.32790649  0.18057558  0.54285086    -0.60200
N72         N  0.29288397  0.27849942  0.07459173    -0.07800
N73         N  0.29761511  0.29983609  0.09980784    -0.62400
N74         N  0.27364191  0.25427886  0.08464873    -0.07400
N75         N  0.26550721  0.25858339  0.11657059    -0.60200
N76         N  0.33044302  0.23201879  0.52634593    -0.07100
N77         N  0.36024674  0.21834969  0.51942874    -0.62700
C78         C  0.35821724  0.18635375  0.53083112     0.94100
C79         C  0.28028495  0.28729575  0.12571385     0.93800
N80         N  0.26184657  0.34234522  0.99434473    -0.08300
N81         N  0.24975009  0.37263014  0.99951544    -0.60800
N82         N  0.32574577  0.29526755  0.46550495    -0.06400
N83         N  0.35488764  0.30646913  0.45410974    -0.62100
N84         N  0.29986127  0.30261060  0.44161159    -0.08300
N85         N  0.31083265  0.31838386  0.41415919    -0.61100
N86         N  0.28774995  0.33445121  0.01783782    -0.06100
N87         N  0.29425016  0.35895165  0.03919267    -0.62200
Mn88       Mn  0.31090428  0.28441287  0.02132440     1.18400
C89         C  0.27062187  0.38277669  0.02750348     0.96100
C90         C  0.34545454  0.32045712  0.42142996     0.96800
N91         N  0.20350186  0.21462247  0.06602616    -0.08400
N92         N  0.19235168  0.19637108  0.09198128    -0.64700
N93         N  0.21646750  0.18351886  0.48973376    -0.07200
N94         N  0.20934032  0.15832464  0.46951028    -0.65300
N95         N  0.24197518  0.17578769  0.51371134    -0.07900
N96         N  0.25319310  0.14497628  0.51011902    -0.64900
N97         N  0.17810866  0.22127870  0.04123969    -0.06800
N98         N  0.14974743  0.20657514  0.05032109    -0.65600
Mn99       Mn  0.25823520  0.21371429  0.05174155     1.10700
C100        C  0.15824667  0.19166577  0.08275055     0.97400
C101        C  0.23223330  0.13435527  0.48253833     0.97400
N102        N  0.23083266  0.26352892  0.42257296    -0.07900
N103        N  0.24096622  0.25811275  0.39156681    -0.63200
N104        N  0.17298952  0.28621558  0.97935600    -0.07200
N105        N  0.14200697  0.29971972  0.98245846    -0.60000
N106        N  0.19267107  0.30890711  0.96686345    -0.08500
N107        N  0.17575615  0.33712082  0.96052347    -0.62800
N108        N  0.21195944  0.23905474  0.43270741    -0.07500
N109        N  0.20950200  0.21646153  0.40858721    -0.60000
Mn110      Mn  0.24570671  0.30428340  0.45578705     1.20200
Mn111      Mn  0.19318918  0.23340093  0.48555815     1.10100
Cl112      Cl  0.25188403  0.25900127  0.00372689    -0.88000
C113        C  0.22786407  0.22844099  0.38325745     0.94400
C114        C  0.14436588  0.33135534  0.96975106     0.94200
N115        N  0.43637977  0.26554122  0.20307172    -0.08100
N116        N  0.40327283  0.25907163  0.19774802    -0.60200
N117        N  0.50958968  0.30225315  0.18668491    -0.07800
N118        N  0.02761654  0.32155006  0.16764091    -0.62400
N119        N  0.50586668  0.27337662  0.17196440    -0.07400
N120        N  0.02080689  0.27235952  0.14290696    -0.60200
N121        N  0.44005429  0.29457202  0.21756228    -0.07100
N122        N  0.41003701  0.30846270  0.22211241    -0.62700
C123        C  0.38742996  0.28591423  0.21015199     0.94100
C124        C  0.03468181  0.30229904  0.14081222     0.93800
N125        N  0.05629152  0.31283565  0.28594786    -0.08300
N126        N  0.08987211  0.31611474  0.28712781    -0.60800
N127        N  0.46847990  0.32059593  0.28965804    -0.06400
N128        N  0.44031804  0.33710396  0.29753888    -0.62100
N129        N  0.48436434  0.30588965  0.31790544    -0.08300
N130        N  0.46718420  0.31230190  0.34541762    -0.61100
N131        N  0.04068830  0.32723816  0.25747904    -0.06100
N132        N  0.06348325  0.34041188  0.23857759    -0.62200
Mn133      Mn  0.48928859  0.31268929  0.23737293     1.18400
C134        C  0.09395597  0.33331044  0.25749722     0.96100
C135        C  0.43934135  0.33193255  0.33264688     0.96800
N136        N  0.02910596  0.20079904  0.18934206    -0.08400
N137        N  0.04468947  0.19502367  0.16085880    -0.64700
N138        N  0.47404605  0.17772011  0.24952451    -0.07200
N139        N  0.45178752  0.16386226  0.26854407    -0.65300
N140        N  0.45783819  0.19266012  0.22166497    -0.07900
N141        N  0.42430482  0.18919672  0.22116477    -0.64900
N142        N  0.04615721  0.18569890  0.21674963    -0.06800
N143        N  0.07383323  0.16936096  0.20693143    -0.65600
Mn144      Mn  0.48162045  0.23263084  0.19515203     1.10700
C145        C  0.07322671  0.17579849  0.17166493     0.97400
C146        C  0.42094890  0.17116964  0.25049323     0.97400
N147        N  0.00787009  0.23269488  0.33535635    -0.07900
N148        N  0.49071348  0.23522108  0.36281415    -0.63200
N149        N  0.07402770  0.21102700  0.29012746    -0.07200
N150        N  0.10416626  0.19738442  0.28546605    -0.60000
N151        N  0.07741314  0.24006493  0.30470316    -0.08500
N152        N  0.11043610  0.24681320  0.30984143    -0.62800
N153        N  0.00381277  0.20371392  0.32077138    -0.07500
N154        N  0.48300256  0.18595361  0.33843749    -0.60000
Mn155      Mn  0.03213975  0.27326684  0.31248430     1.20200
Mn156      Mn  0.02511330  0.19282010  0.26984814     1.10100
Cl157      Cl  0.50702994  0.25280125  0.25377721    -0.88000
C158        C  0.47500536  0.20625903  0.36418757     0.94400
C159        C  0.12651826  0.22018046  0.29732845     0.94200
N160        N  0.29087226  0.44296964  0.31611763    -0.08100
N161        N  0.30180088  0.41367854  0.33069545    -0.60200
N162        N  0.27528142  0.01856679  0.34406010    -0.07800
N163        N  0.27955735  0.03815168  0.37077025    -0.62400
N164        N  0.24812214  0.00036501  0.34585063    -0.07400
N165        N  0.23274659  0.00762862  0.37397470    -0.60200
N166        N  0.31715075  0.46232998  0.31357093    -0.07100
N167        N  0.34637515  0.44640985  0.32633953    -0.62700
C168        C  0.33674364  0.41573831  0.33694514     0.94100
C169        C  0.25312630  0.03103831  0.38940879     0.93800
N170        N  0.27886184  0.08187143  0.25682516    -0.08300
N171        N  0.28257831  0.11414349  0.25466582    -0.60800
N172        N  0.33381143  0.51697810  0.25430992    -0.06400
N173        N  0.36735931  0.51174158  0.25463760    -0.62100
N174        N  0.32040559  0.52975799  0.22380492    -0.08300
N175        N  0.34472479  0.53362015  0.20300453    -0.61100
N176        N  0.29305671  0.07001706  0.28743953    -0.06100
N177        N  0.30615012  0.09426734  0.30623290    -0.62200
Mn178      Mn  0.30554373  0.01684514  0.29982313     1.18400
C179        C  0.29986058  0.12177511  0.28555314     0.96100
C180        C  0.37349067  0.52246306  0.22256156     0.96800
N181        N  0.18304279  0.98443021  0.29203163    -0.08400
N182        N  0.15811111  0.98048564  0.31224633    -0.64700
N183        N  0.21208494  0.44383467  0.22881059    -0.07200
N184        N  0.20240534  0.41877474  0.20929451    -0.65300
N185        N  0.22622761  0.43263614  0.25960846    -0.07900
N186        N  0.22631570  0.40009111  0.26128593    -0.64900
N187        N  0.17024907  0.99710309  0.26127668    -0.06800
N188        N  0.13668580  0.00227476  0.26019330    -0.65600
Mn189      Mn  0.23654603  0.46455471  0.30386143     1.10700
C190        C  0.12968954  0.99173414  0.29202073     0.97400
C191        C  0.21118686  0.39149013  0.22981319     0.97400
N192        N  0.25561500  0.51378725  0.16962170    -0.07900
N193        N  0.27044333  0.50687216  0.14100341    -0.63200
N194        N  0.18681164  0.05112469  0.20104438    -0.07200
N195        N  0.15816812  0.06464223  0.18403025    -0.60000
N196        N  0.21248160  0.07139697  0.19902223    -0.08500
N197        N  0.20127945  0.09902780  0.18072468    -0.62800
N198        N  0.22884790  0.49513360  0.17176887    -0.07500
N199        N  0.22421380  0.47575228  0.14489911    -0.60000
Mn200      Mn  0.26718621  0.04989241  0.21205560     1.20200
Mn201      Mn  0.19883198  0.49686639  0.21592355     1.10100
Cl202      Cl  0.25198026  0.00720025  0.25795763    -0.88000
C203        C  0.25010341  0.48325479  0.12570502     0.94400
C204        C  0.16675045  0.09514140  0.17188949     0.94200
C205        C  0.35706378  0.17712699  0.24530792    -0.15300
C206        C  0.38794605  0.16672256  0.26478100     0.06800
C207        C  0.38698990  0.15179511  0.29789458    -0.15300
C208        C  0.35551736  0.14347711  0.30935740    -0.15300
C209        C  0.32503984  0.14829673  0.28673421     0.06800
C210        C  0.32558975  0.16872448  0.25671803    -0.15300
H211        H  0.35727065  0.18921622  0.21993245     0.10800
H212        H  0.41057540  0.14421036  0.31368162     0.10800
H213        H  0.35579630  0.12871744  0.33330828     0.10800
H214        H  0.30231843  0.17368271  0.23928661     0.10800
C215        C  0.15782642  0.33126384  0.26691143    -0.15300
C216        C  0.12756668  0.33847226  0.24484286     0.06800
C217        C  0.12980380  0.35177009  0.21119820    -0.15300
C218        C  0.16127324  0.36282192  0.20201290    -0.15300
C219        C  0.19004393  0.36194361  0.22716960     0.06800
C220        C  0.18927891  0.34208183  0.25758514    -0.15300
H221        H  0.15683310  0.31995373  0.29259883     0.10800
H222        H  0.10686322  0.35624200  0.19319481     0.10800
H223        H  0.16156290  0.37682893  0.17766889     0.10800
H224        H  0.21153563  0.33982158  0.27687568     0.10800
C225        C  0.23336555  0.42832139  0.04829951    -0.15300
C226        C  0.26619259  0.41379249  0.04656465     0.06800
C227        C  0.29450220  0.42636868  0.06729369    -0.15300
C228        C  0.28985088  0.45160761  0.09081319    -0.15300
C229        C  0.25666281  0.46411632  0.09467583     0.06800
C230        C  0.22859012  0.45292645  0.07252578    -0.15300
H231        H  0.21107926  0.41899232  0.03287704     0.10800
H232        H  0.32010880  0.41556751  0.06647249     0.10800
H233        H  0.31177706  0.45940139  0.10788775     0.10800
H234        H  0.20265003  0.46204645  0.07522726     0.10800
C235        C  0.21270831  0.06370706  0.42223763    -0.15300
C236        C  0.24591900  0.05053241  0.41974776     0.06800
C237        C  0.27367939  0.06161188  0.44227234    -0.15300
C238        C  0.26872833  0.08708580  0.46529121    -0.15300
C239        C  0.23611059  0.10248052  0.46531836     0.06800
C240        C  0.20791549  0.08982081  0.44457854    -0.15300
H241        H  0.19106296  0.05585580  0.40481707     0.10800
H242        H  0.29959482  0.05186997  0.44058974     0.10800
H243        H  0.29083275  0.09645454  0.48093761     0.10800
H244        H  0.18246490  0.10129793  0.44428844     0.10800
C245        C  0.21536190  0.24258132  0.32153913    -0.15300
C246        C  0.22227863  0.21740142  0.34731709     0.06800
C247        C  0.20682482  0.18668112  0.34221620    -0.15300
C248        C  0.17681557  0.18530214  0.31941065    -0.15300
C249        C  0.16368705  0.21448876  0.30186665     0.06800
C250        C  0.18493365  0.24160564  0.29943442    -0.15300
H251        H  0.22835713  0.26593888  0.32367103     0.10800
H252        H  0.21308433  0.16630130  0.36086052     0.10800
H253        H  0.16106349  0.16366927  0.32056921     0.10800
H254        H  0.17564145  0.26366732  0.28452412     0.10800
C255        C  0.32793234  0.26627132  0.20612386    -0.15300
C256        C  0.35040196  0.29255271  0.20495914     0.06800
C257        C  0.33828249  0.32317924  0.18990858    -0.16900
C258        C  0.30725945  0.32467890  0.16848656    -0.15300
C259        C  0.28952251  0.29534391  0.16217325     0.06800
C260        C  0.29644296  0.26818991  0.18561171    -0.15300
H261        H  0.33643092  0.24310910  0.21923378     0.10800
H262        H  0.35504231  0.34415684  0.18979623     0.10800
H263        H  0.30127822  0.34644016  0.15167198     0.10800
H264        H  0.28186985  0.24578417  0.18260354     0.10800
C265        C  0.39166648  0.10130442  0.54229557    -0.15300
C266        C  0.37811349  0.08931914  0.51008521     0.06800
C267        C  0.36664281  0.11208092  0.48277405    -0.15300
C268        C  0.36730427  0.14598461  0.48788554    -0.15300
C269        C  0.37797763  0.15789043  0.52084248     0.06800
C270        C  0.39132448  0.13543620  0.54768578    -0.15300
H271        H  0.40197436  0.08439874  0.06328056     0.10800
H272        H  0.35683388  0.10361534  0.45729375     0.10800
H273        H  0.35562924  0.16267938  0.46724596     0.10800
H274        H  0.39853092  0.14414632  0.57371260     0.10800
C275        C  0.11901726  0.40484948  0.01411708    -0.15300
C276        C  0.11228539  0.42799916  0.98597874     0.06800
C277        C  0.10903770  0.41651516  0.95184621    -0.15300
C278        C  0.11439733  0.38268677  0.94620434    -0.15300
C279        C  0.12199505  0.35992901  0.97456678     0.06800
C280        C  0.12294287  0.37121558  0.00849127    -0.15300
H281        H  0.12165628  0.41272334  0.04088735     0.10800
H282        H  0.10319422  0.43361240  0.42973200     0.10800
H283        H  0.11512812  0.37457358  0.91969698     0.10800
H284        H  0.13046949  0.35454871  0.03063885     0.10800
C285        C  0.05808287  0.46793716  0.34281334    -0.15300
C286        C  0.04020836  0.49839819  0.34208103     0.06800
C287        C  0.04665257  0.02362191  0.31818625    -0.15300
C288        C  0.07416396  0.01990789  0.29820967    -0.15300
C289        C  0.09538502  0.99136762  0.30313067     0.06800
C290        C  0.08609889  0.46453731  0.32358711    -0.15300
H291        H  0.05338053  0.44855405  0.36162918     0.10800
H292        H  0.03314264  0.04742444  0.31802427     0.10800
H293        H  0.08121083  0.04066619  0.28225864     0.10800
H294        H  0.10221672  0.44219433  0.32702232     0.10800
C295        C  0.44409905  0.98703083  0.17934179    -0.15300
C296        C  0.44858701  0.01380688  0.15661361     0.06800
C297        C  0.43634829  0.04554756  0.16313177    -0.15300
C298        C  0.41516850  0.54960261  0.18956306    -0.15300
C299        C  0.40669266  0.52189695  0.20925596     0.06800
C300        C  0.42339321  0.49122688  0.20627977    -0.15300
H301        H  0.45384193  0.96245762  0.17423596     0.10800
H302        H  0.43994909  0.06625410  0.14550364     0.10800
H303        H  0.40217507  0.57338265  0.19184843     0.10800
H304        H  0.41667814  0.46972222  0.22132715     0.10800
C305        C  0.52310859  0.33686468  0.05178547    -0.15300
C306        C  0.54401300  0.36429532  0.05694309     0.06800
C307        C  0.07127167  0.36311827  0.08390815    -0.15300
C308        C  0.07159763  0.33919942  0.11048767    -0.15300
C309        C  0.04603509  0.31562513  0.10874531     0.06800
C310        C  0.52442228  0.31211800  0.07772841    -0.15300
H311        H  0.50255001  0.33693314  0.03061370     0.10800
H312        H  0.08857691  0.38352887  0.08775328     0.10800
H313        H  0.08894849  0.34152268  0.13403201     0.10800
H314        H  0.50487219  0.29349485  0.07592361     0.10800
C315        C  0.41868572  0.15674636  0.41542353    -0.15300
C316        C  0.94170762  0.15339254  0.44587459     0.06800
C317        C  0.96468845  0.17879299  0.45408878    -0.15300
C318        C  0.97269783  0.20019768  0.42740180    -0.15300
C319        C  0.45667376  0.19635251  0.39357049     0.06800
C320        C  0.42717269  0.17754895  0.38843115    -0.15300
H321        H  0.39902376  0.13869899  0.40953860     0.10800
H322        H  0.98143521  0.17770050  0.47837488     0.10800
H323        H  0.99475027  0.21584900  0.43201087     0.10800
H324        H  0.41315426  0.17633744  0.36283688     0.10800
C325        C  0.41220284  0.34849797  0.85524810     0.84500
C326        C  0.42947684  0.37173557  0.88238108    -0.55700
C327        C  0.40762875  0.38775144  0.90249515     0.07400
C328        C  0.36905945  0.37885304  0.89343657     0.18400
C329        C  0.39124120  0.32468323  0.87730357    -0.56500
C330        C  0.36862972  0.33987488  0.89789245     0.07500
C331        C  0.38430471  0.37144506  0.83407650    -0.56000
C332        C  0.36167051  0.38794207  0.85330366     0.08100
H333        H  0.45689880  0.37646793  0.88429117     0.12600
H334        H  0.35131909  0.39205611  0.90952307    -0.01700
H335        H  0.39432450  0.29792217  0.87670675     0.12900
H336        H  0.38372314  0.37568032  0.80606414     0.12700
C337        C  0.09487499  0.11918509  0.59618583     0.84500
C338        C  0.11499577  0.14590374  0.57820624    -0.55700
C339        C  0.13598006  0.16509213  0.59987570     0.07400
C340        C  0.13362764  0.15448208  0.64041127     0.18400
C341        C  0.12237693  0.09876798  0.61993981    -0.56500
C342        C  0.14287257  0.11573028  0.64396920     0.07500
C343        C  0.07450768  0.13817900  0.62167492    -0.56000
C344        C  0.09335596  0.15665197  0.64563006     0.08100
H345        H  0.11319507  0.14892615  0.54997755     0.12600
H346        H  0.14974269  0.16941400  0.65916725    -0.01700
H347        H  0.12437314  0.07194827  0.61869332     0.12900
H348        H  0.04667747  0.13655340  0.62110731     0.12700
N349        N  0.02381980  0.52436969  0.92420414    -0.08100
N350        N  0.04510136  0.52184752  0.89999981    -0.60200
N351        N  0.45993610  0.06849718  0.94959119    -0.07800
N352        N  0.43656799  0.09275550  0.94507137    -0.62400
N353        N  0.98986544  0.07992833  0.96251297    -0.07400
N354        N  0.98707953  0.11202343  0.96716897    -0.60200
N355        N  0.99382661  0.51218708  0.91299741    -0.07100
N356        N  0.99395561  0.50118002  0.88112122    -0.62700
C357        C  0.02601859  0.50762778  0.87358339     0.94100
C358        C  0.95356718  0.11966654  0.95655465     0.93800
N359        N  0.40901024  0.00786231  0.00450438    -0.08300
N360        N  0.39506543  0.02969913  0.52446499    -0.60800
N361        N  0.44017082  0.46227192  0.93908739    -0.06400
N362        N  0.42930184  0.44522828  0.91141309    -0.62100
N363        N  0.43796653  0.44484508  0.96805505    -0.08300
N364        N  0.42551301  0.41521322  0.96041144    -0.61100
N365        N  0.40649875  0.01961307  0.97219030    -0.06100
N366        N  0.38851723  0.04747763  0.96904093    -0.62200
Mn367      Mn  0.45006195  0.01538245  0.94233867     1.18400
C368        C  0.38210900  0.05424835  0.00157325     0.96100
C369        C  0.42017457  0.41580742  0.92486374     0.96800
N370        N  0.04827279  0.07117543  0.52821797    -0.08400
N371        N  0.06574815  0.09834434  0.53662815    -0.64700
N372        N  0.07714952  0.49617282  0.52271506    -0.07200
N373        N  0.09572857  0.46871464  0.52628547    -0.65300
N374        N  0.07552016  0.50816842  0.99058490    -0.07900
N375        N  0.09118563  0.48706163  0.97103912    -0.64900
N376        N  0.04442105  0.05378350  0.55679336    -0.06800
N377        N  0.05862451  0.06851536  0.58474170    -0.65600
Mn378      Mn  0.03530392  0.04709989  0.97550427     1.10700
C379        C  0.07182135  0.09658080  0.57228101     0.97400
C380        C  0.10401192  0.46261929  0.49418817     0.97400
N381        N  0.49428656  0.43613533  0.53444263    -0.07900
N382        N  0.49719491  0.40360947  0.53265357    -0.63200
N383        N  0.49030417  0.00478599  0.58206119    -0.07200
N384        N  0.49127113  0.01481280  0.61430637    -0.60000
N385        N  0.46025228  0.99235304  0.57158013    -0.08500
N386        N  0.43995822  0.99367099  0.59685142    -0.62800
N387        N  0.52406415  0.44836782  0.54634973    -0.07500
N388        N  0.04755280  0.42457090  0.55268526    -0.60000
Mn389      Mn  0.44926812  0.46916685  0.52037276     1.20200
Mn390      Mn  0.03373390  0.50114926  0.55267665     1.10100
Cl391      Cl  0.49201934  0.00823653  0.99764320    -0.88000
C392        C  0.53083715  0.39687156  0.54379132     0.94400
C393        C  0.45981603  0.00769885  0.62293614     0.94200
N394        N  0.31141111  0.20921904  0.03956266    -0.08100
N395        N  0.32792615  0.18057319  0.04282640    -0.60200
N396        N  0.29286013  0.27850398  0.57460539    -0.07800
N397        N  0.29759527  0.29983793  0.59982352    -0.62400
N398        N  0.27361681  0.25428408  0.58466137    -0.07400
N399        N  0.26548547  0.25858627  0.61658490    -0.60200
N400        N  0.33046028  0.23201696  0.02632331    -0.07100
N401        N  0.36026114  0.21834786  0.01939776    -0.62700
C402        C  0.35823336  0.18635149  0.03079916     0.94100
C403        C  0.28026666  0.28729665  0.62573025     0.93800
N404        N  0.26183226  0.34234587  0.49434768    -0.08300
N405        N  0.24973464  0.37263164  0.49951204    -0.60800
N406        N  0.32575504  0.29526933  0.96548569    -0.06400
N407        N  0.35489509  0.30647008  0.95408558    -0.62100
N408        N  0.29986711  0.30261539  0.94159721    -0.08300
N409        N  0.31083424  0.31839010  0.91414339    -0.61100
N410        N  0.28773140  0.33445371  0.51784645    -0.06100
N411        N  0.29422763  0.35895670  0.53919905    -0.62200
Mn412      Mn  0.31088656  0.28441498  0.52134079     1.18400
C413        C  0.27060122  0.38278100  0.52750221     0.96100
C414        C  0.34545710  0.32046108  0.92140799     0.96800
N415        N  0.20347713  0.21462873  0.56603086    -0.08400
N416        N  0.19232471  0.19637734  0.59198477    -0.64700
N417        N  0.21648443  0.18351552  0.98972497    -0.07200
N418        N  0.20935506  0.15832179  0.96950132    -0.65300
N419        N  0.24199436  0.17578377  0.01369982    -0.07900
N420        N  0.25321175  0.14497251  0.01010530    -0.64900
N421        N  0.17808622  0.22128379  0.54124155    -0.06800
N422        N  0.14972441  0.20657889  0.55031993    -0.65600
Mn423      Mn  0.25821261  0.21371890  0.55175321     1.10700
C424        C  0.15822078  0.19167021  0.58275031     0.97400
C425        C  0.23224922  0.13435212  0.98252623     0.97400
N426        N  0.23083821  0.26353237  0.92256646    -0.07900
N427        N  0.24096719  0.25811933  0.89155777    -0.63200
N428        N  0.17297585  0.28622082  0.47935297    -0.07200
N429        N  0.14199455  0.29972893  0.48245370    -0.60000
N430        N  0.19266011  0.30890945  0.46685948    -0.08500
N431        N  0.17574840  0.33712462  0.46051709    -0.62800
N432        N  0.21196807  0.23905615  0.93270187    -0.07500
N433        N  0.20950797  0.21646492  0.90857973    -0.60000
Mn434      Mn  0.24571555  0.30428524  0.95578223     1.20200
Mn435      Mn  0.19320504  0.23339744  0.98555492     1.10100
Cl436      Cl  0.25186766  0.25900337  0.50373602    -0.88000
C437        C  0.22786531  0.22844757  0.88324775     0.94400
C438        C  0.14435714  0.33136364  0.46974434     0.94200
N439        N  0.43639455  0.26553120  0.70305145    -0.08100
N440        N  0.40328785  0.25906038  0.69772711    -0.60200
N441        N  0.50960723  0.30224299  0.68667250    -0.07800
N442        N  0.02759437  0.32156132  0.66765188    -0.62400
N443        N  0.50588567  0.27336622  0.67195224    -0.07400
N444        N  0.02078335  0.27237108  0.64291749    -0.60200
N445        N  0.44006763  0.29456265  0.71754102    -0.07100
N446        N  0.41004968  0.30845256  0.72208982    -0.62700
C447        C  0.38744379  0.28590325  0.71012922     0.94100
C448        C  0.03465691  0.30231118  0.64082155     0.93800
N449        N  0.05628219  0.31284491  0.78595712    -0.08300
N450        N  0.08986250  0.31612448  0.78713237    -0.60800
N451        N  0.46848554  0.32058916  0.78963883    -0.06400
N452        N  0.44032343  0.33709902  0.79751627    -0.62100
N453        N  0.48436713  0.30588364  0.81788807    -0.08300
N454        N  0.46718485  0.31229836  0.84539816    -0.61100
N455        N  0.04067525  0.32724787  0.75749034    -0.06100
N456        N  0.06346715  0.34042236  0.73858572    -0.62200
Mn457      Mn  0.48930032  0.31268055  0.73735690     1.18400
C458        C  0.09394210  0.33332102  0.75750111     0.96100
C459        C  0.43934358  0.33192963  0.83262412     0.96800
N460        N  0.02908690  0.20080784  0.68935059    -0.08400
N461        N  0.04466530  0.19503074  0.66086455    -0.64700
N462        N  0.47405826  0.17770989  0.74950860    -0.07200
N463        N  0.45179842  0.16384991  0.76852501    -0.65300
N464        N  0.45785245  0.19264976  0.72164799    -0.07900
N465        N  0.42431900  0.18918428  0.72114395    -0.64900
N466        N  0.04614119  0.18570755  0.71675637    -0.06800
N467        N  0.07381446  0.16936806  0.70693418    -0.65600
Mn468      Mn  0.48163714  0.23262086  0.69513745     1.10700
C469        C  0.07320267  0.17580446  0.67166700     0.97400
C470        C  0.42096100  0.17115578  0.75047112     0.97400
N471        N  0.00786966  0.23270077  0.83537140    -0.07900
N472        N  0.49070831  0.23521704  0.86279525    -0.63200
N473        N  0.07402049  0.21103634  0.79013182    -0.07200
N474        N  0.10415837  0.19739488  0.78546593    -0.60000
N475        N  0.07740702  0.24007395  0.80470806    -0.08500
N476        N  0.11042998  0.24682309  0.80984222    -0.62800
N477        N  0.00381177  0.20372009  0.82078602    -0.07500
N478        N  0.48299977  0.18594893  0.83841951    -0.60000
Mn479      Mn  0.03213455  0.27327442  0.81249608     1.20200
Mn480      Mn  0.02510449  0.19282855  0.76985854     1.10100
Cl481      Cl  0.50704011  0.25279277  0.75376417    -0.88000
C482        C  0.47499824  0.20625598  0.86416667     0.94400
C483        C  0.12651098  0.22019127  0.79732611     0.94200
N484        N  0.29087073  0.44296888  0.81608941    -0.08100
N485        N  0.30180107  0.41367829  0.83066717    -0.60200
N486        N  0.27528386  0.01856232  0.84404130    -0.07800
N487        N  0.27956227  0.03814782  0.87075080    -0.62400
N488        N  0.24812522  0.00036029  0.84583523    -0.07400
N489        N  0.23275275  0.00762435  0.87396116    -0.60200
N490        N  0.31714837  0.46232954  0.81353877    -0.07100
N491        N  0.34637397  0.44640974  0.82630503    -0.62700
C492        C  0.33674401  0.41573803  0.83691261     0.94100
C493        C  0.25313368  0.03103450  0.88939279     0.93800
N494        N  0.27884410  0.08187653  0.75681169    -0.08300
N495        N  0.28256696  0.11414783  0.75465257    -0.60800
N496        N  0.33379530  0.51698850  0.75427516    -0.06400
N497        N  0.36734589  0.51177347  0.75459706    -0.62100
N498        N  0.32037940  0.52977148  0.72377504    -0.08300
N499        N  0.34469319  0.53365647  0.70297303    -0.61100
N500        N  0.29304631  0.07001882  0.78742197    -0.06100
N501        N  0.30615004  0.09426608  0.80621287    -0.62200
Mn502      Mn  0.30553701  0.01684602  0.79979678     1.18400
C503        C  0.29986043  0.12177538  0.78553566     0.96100
C504        C  0.37346742  0.52251036  0.72252275     0.96800
N505        N  0.18303707  0.98442333  0.79202773    -0.08400
N506        N  0.15811034  0.98046738  0.81224620    -0.64700
N507        N  0.21206815  0.44383773  0.72879517    -0.07200
N508        N  0.20238462  0.41877915  0.70927887    -0.65300
N509        N  0.22621755  0.43263710  0.75958973    -0.07900
N510        N  0.22630620  0.40009198  0.76126459    -0.64900
N511        N  0.17023526  0.99709809  0.76127619    -0.06800
N512        N  0.13667085  0.00225932  0.76019933    -0.65600
Mn513      Mn  0.23654289  0.46455227  0.80384478     1.10700
C514        C  0.12968269  0.99171057  0.79202698     0.97400
C515        C  0.21117039  0.39149310  0.72979396     0.97400
N516        N  0.25558206  0.51379981  0.66960461    -0.07900
N517        N  0.27040821  0.50688692  0.64098458    -0.63200
N518        N  0.18678420  0.05112918  0.70104246    -0.07200
N519        N  0.15813982  0.06464573  0.68402881    -0.60000
N520        N  0.21245293  0.07140287  0.69901947    -0.08500
N521        N  0.20124920  0.09903331  0.68072244    -0.62800
N522        N  0.22881693  0.49514404  0.67175389    -0.07500
N523        N  0.22418188  0.47576340  0.64488358    -0.60000
Mn524      Mn  0.26715869  0.04990092  0.71204070     1.20200
Mn525      Mn  0.19880960  0.49686982  0.71591556     1.10100
Cl526      Cl  0.25196519  0.00720287  0.75794131    -0.88000
C527        C  0.25006881  0.48326891  0.62568695     0.94400
C528        C  0.16672061  0.09514554  0.67188805     0.94200
C529        C  0.35707566  0.17711159  0.74528055    -0.15300
C530        C  0.38795674  0.16670789  0.76475607     0.06800
C531        C  0.38699832  0.15178269  0.79787044    -0.15300
C532        C  0.35552458  0.14346847  0.80933313    -0.15300
C533        C  0.32504734  0.14829030  0.78670986     0.06800
C534        C  0.32560036  0.16871334  0.75669064    -0.15300
H535        H  0.35728434  0.18919794  0.71990386     0.10800
H536        H  0.41058289  0.14419802  0.81365912     0.10800
H537        H  0.35580148  0.12871161  0.83328567     0.10800
H538        H  0.30232985  0.17367254  0.73925838     0.10800
C539        C  0.15781327  0.33127135  0.76690346    -0.15300
C540        C  0.12755034  0.33848197  0.74484064     0.06800
C541        C  0.12978191  0.35177981  0.71119495    -0.15300
C542        C  0.16125003  0.36282861  0.70200280    -0.15300
C543        C  0.19002533  0.36194777  0.72715392     0.06800
C544        C  0.18926450  0.34208605  0.75757019    -0.15300
H545        H  0.15682400  0.31996174  0.79259172     0.10800
H546        H  0.10683858  0.35625381  0.69319609     0.10800
H547        H  0.16153601  0.37683560  0.67765826     0.10800
H548        H  0.21152453  0.33982377  0.77685643     0.10800
C549        C  0.23333912  0.42832587  0.54828857    -0.15300
C550        C  0.26616801  0.41379961  0.54655715     0.06800
C551        C  0.29447552  0.42638156  0.56728418    -0.15300
C552        C  0.28982042  0.45162337  0.59079922    -0.15300
C553        C  0.25663064  0.46412894  0.59465967     0.06800
C554        C  0.22855990  0.45293370  0.57251081    -0.15300
H555        H  0.21105443  0.41899234  0.53286726     0.10800
H556        H  0.32008343  0.41558265  0.56646515     0.10800
H557        H  0.31174521  0.45942160  0.60787285     0.10800
H558        H  0.20261861  0.46205131  0.57521069     0.10800
C559        C  0.21271901  0.06370447  0.92222513    -0.15300
C560        C  0.24592916  0.05052970  0.91973218     0.06800
C561        C  0.27369121  0.06160932  0.94225450    -0.15300
C562        C  0.26874202  0.08708277  0.96527455    -0.15300
C563        C  0.23612474  0.10247769  0.96530468     0.06800
C564        C  0.20792818  0.08981818  0.94456684    -0.15300
H565        H  0.19107227  0.05585314  0.90480649     0.10800
H566        H  0.29960627  0.05186741  0.94056971     0.10800
H567        H  0.29084722  0.09645086  0.98092002     0.10800
H568        H  0.18247781  0.10129522  0.94427913     0.10800
C569        C  0.21535513  0.24259270  0.82153114    -0.15300
C570        C  0.22227469  0.21741100  0.84730667     0.06800
C571        C  0.20682080  0.18669083  0.84220505    -0.15300
C572        C  0.17681011  0.18531265  0.81940152    -0.15300
C573        C  0.16367986  0.21450007  0.80186043     0.06800
C574        C  0.18492560  0.24161756  0.79942837    -0.15300
H575        H  0.22834995  0.26595044  0.82366368     0.10800
H576        H  0.21308211  0.16630987  0.86084753     0.10800
H577        H  0.16105863  0.16367934  0.82055984     0.10800
H578        H  0.17563202  0.26367978  0.78451997     0.10800
C579        C  0.32794773  0.26625455  0.70611298    -0.15300
C580        C  0.35041472  0.29253762  0.70494414     0.06800
C581        C  0.33828718  0.32316731  0.68990769    -0.16900
C582        C  0.30725320  0.32467148  0.66850334    -0.15300
C583        C  0.28951474  0.29533724  0.66219016     0.06800
C584        C  0.29644817  0.26817745  0.68561870    -0.15300
H585        H  0.33645292  0.24308977  0.71921360     0.10800
H586        H  0.35504508  0.34414623  0.68979320     0.10800
H587        H  0.30126242  0.34643709  0.65169759     0.10800
H588        H  0.28187444  0.24577199  0.68261213     0.10800
C589        C  0.39167413  0.10130222  0.04225306    -0.15300
C590        C  0.37809993  0.08931599  0.01005052     0.06800
C591        C  0.36662036  0.11207664  0.98274152    -0.15300
C592        C  0.36729238  0.14598068  0.98784906    -0.15300
C593        C  0.37798660  0.15788810  0.02080041     0.06800
C594        C  0.39134406  0.13543444  0.04763955    -0.15300
H595        H  0.40195797  0.08440049  0.56332623     0.10800
H596        H  0.35679708  0.10360967  0.95726621     0.10800
H597        H  0.35560963  0.16267542  0.96721327     0.10800
H598        H  0.39856740  0.14414594  0.07366251     0.10800
C599        C  0.11900749  0.40486009  0.51411186    -0.15300
C600        C  0.11227564  0.42801070  0.48597432     0.06800
C601        C  0.10903265  0.41652796  0.45184116    -0.15300
C602        C  0.11439514  0.38270000  0.44619818    -0.15300
C603        C  0.12199043  0.35994097  0.47456003     0.06800
C604        C  0.12293613  0.37122657  0.50848485    -0.15300
H605        H  0.12164321  0.41273290  0.54088251     0.10800
H606        H  0.10319879  0.43359895  0.92973666     0.10800
H607        H  0.11512807  0.37458788  0.41969072     0.10800
H608        H  0.13046140  0.35455906  0.53063220     0.10800
C609        C  0.05810223  0.46790158  0.84285094    -0.15300
C610        C  0.04020714  0.49835283  0.84210030     0.06800
C611        C  0.04662877  0.02356635  0.81818477    -0.15300
C612        C  0.07413896  0.01985658  0.79820561    -0.15300
C613        C  0.09538054  0.99133087  0.80314353     0.06800
C614        C  0.08611583  0.46450616  0.82362074    -0.15300
H615        H  0.05341702  0.44852634  0.86168228     0.10800
H616        H  0.03310285  0.04736179  0.81800819     0.10800
H617        H  0.08116836  0.04061039  0.78223813     0.10800
H618        H  0.10224850  0.44217342  0.82706870     0.10800
C619        C  0.44418235  0.98713391  0.67940327    -0.15300
C620        C  0.44860880  0.01387848  0.65661333     0.06800
C621        C  0.43628435  0.04560850  0.66304958    -0.15300
C622        C  0.41508573  0.54967019  0.68946288    -0.15300
C623        C  0.40666998  0.52198084  0.70921569     0.06800
C624        C  0.42345166  0.49133743  0.70632041    -0.15300
H625        H  0.45398972  0.96256883  0.67435904     0.10800
H626        H  0.43983689  0.06629052  0.64537312     0.10800
H627        H  0.40203404  0.57343093  0.69168885     0.10800
H628        H  0.41678604  0.46984510  0.72141616     0.10800
C629        C  0.52313141  0.33685907  0.55178151    -0.15300
C630        C  0.54403464  0.36428993  0.55694266     0.06800
C631        C  0.07124929  0.36312584  0.58391062    -0.15300
C632        C  0.07157205  0.33921111  0.61049403    -0.15300
C633        C  0.04600879  0.31563744  0.60875373     0.06800
C634        C  0.52444727  0.31210895  0.57772092    -0.15300
H635        H  0.50257182  0.33692967  0.53061057     0.10800
H636        H  0.08855576  0.38353589  0.58775310     0.10800
H637        H  0.08892213  0.34153636  0.63403829     0.10800
H638        H  0.50489751  0.29348553  0.57591443     0.10800
C639        C  0.41866898  0.15674795  0.91539632    -0.15300
C640        C  0.94172739  0.15338896  0.94589998     0.06800
C641        C  0.96471003  0.17878834  0.95411249    -0.15300
C642        C  0.97271657  0.20019408  0.92742510    -0.15300
C643        C  0.45666103  0.19635196  0.89354644     0.06800
C644        C  0.42716048  0.17754810  0.88840390    -0.15300
H645        H  0.39900791  0.13870004  0.90950994     0.10800
H646        H  0.98145970  0.17769423  0.97839666     0.10800
H647        H  0.99476973  0.21584482  0.93203207     0.10800
H648        H  0.41314606  0.17633456  0.86280787     0.10800
C649        C  0.41220324  0.84849724  0.35527583     0.84500
C650        C  0.42947772  0.87173322  0.38241042    -0.55700
C651        C  0.40763023  0.88774744  0.40252663     0.07400
C652        C  0.36906077  0.87884896  0.39346792     0.18400
C653        C  0.39124224  0.82468064  0.37732981    -0.56500
C654        C  0.36863107  0.83987072  0.39792023     0.07500
C655        C  0.38430429  0.87144494  0.33410676    -0.56000
C656        C  0.36167040  0.88793977  0.35333573     0.08100
H657        H  0.45689945  0.87646638  0.38431948     0.12600
H658        H  0.35132050  0.89205058  0.40955567    -0.01700
H659        H  0.39432469  0.79791968  0.37672986     0.12900
H660        H  0.38372168  0.87568220  0.30609459     0.12700
C661        C  0.09490376  0.61917942  0.09618483     0.84500
C662        C  0.11502253  0.64589947  0.07820541    -0.55700
C663        C  0.13600556  0.66508867  0.09987527     0.07400
C664        C  0.13365339  0.65447845  0.14041071     0.18400
C665        C  0.12240712  0.59876389  0.11993859    -0.56500
C666        C  0.14290146  0.61572716  0.14396824     0.07500
C667        C  0.07453494  0.63817149  0.12167365    -0.56000
C668        C  0.09338125  0.65664572  0.14562869     0.08100
H669        H  0.11322188  0.64892196  0.04997670     0.12600
H670        H  0.14976708  0.66941142  0.15916681    -0.01700
H671        H  0.12440511  0.57194427  0.11869188     0.12900
H672        H  0.04670481  0.63654425  0.12110543     0.12700
N673        N  0.02381065  0.02438701  0.42419512    -0.08100
N674        N  0.04509275  0.02188165  0.39998951    -0.60200
N675        N  0.45995416  0.56849174  0.44960559    -0.07800
N676        N  0.43658752  0.59275169  0.44509208    -0.62400
N677        N  0.98984999  0.57993349  0.46249714    -0.07400
N678        N  0.98706151  0.61202850  0.46715238    -0.60200
N679        N  0.99382142  0.01219911  0.41298357    -0.07100
N680        N  0.99395422  0.00120400  0.38110291    -0.62700
C681        C  0.02601468  0.00766608  0.37356720     0.94100
C682        C  0.95355015  0.61967010  0.45653190     0.93800
N683        N  0.40903039  0.50786557  0.50453264    -0.08300
N684        N  0.39504344  0.52969573  0.02442885    -0.60800
N685        N  0.44017321  0.96226939  0.43911550    -0.06400
N686        N  0.42930111  0.94522533  0.41144254    -0.62100
N687        N  0.43797334  0.94484287  0.46808423    -0.08300
N688        N  0.42551977  0.91521043  0.46044244    -0.61100
N689        N  0.40651669  0.51961674  0.47221866    -0.06100
N690        N  0.38853656  0.54748213  0.46907106    -0.62200
Mn691      Mn  0.45007274  0.51537847  0.44235864     1.18400
C692        C  0.38212996  0.55425207  0.50160409     0.96100
C693        C  0.42017626  0.91580431  0.42489470     0.96800
N694        N  0.04829944  0.57116684  0.02822113    -0.08400
N695        N  0.06577519  0.59833622  0.03662865    -0.64700
N696        N  0.07716951  0.99616655  0.02272100    -0.07200
N697        N  0.09574933  0.96870901  0.02629047    -0.65300
N698        N  0.07550290  0.00818067  0.49058179    -0.07900
N699        N  0.09117289  0.98707640  0.47103676    -0.64900
N700        N  0.04445008  0.55377616  0.05679799    -0.06800
N701        N  0.05865523  0.56850908  0.08474462    -0.65600
Mn702      Mn  0.03528919  0.54710748  0.47549441     1.10700
C703        C  0.07185100  0.59657379  0.07228142     0.97400
C704        C  0.10402729  0.96261191  0.99419176     0.97400
N705        N  0.49426760  0.93613877  0.03442533    -0.07900
N706        N  0.49717758  0.90361281  0.03263937    -0.63200
N707        N  0.49026969  0.50479012  0.08204008    -0.07200
N708        N  0.49123419  0.51480182  0.11429067    -0.60000
N709        N  0.46022271  0.49234893  0.07155523    -0.08500
N710        N  0.43993132  0.49364277  0.09683025    -0.62800
N711        N  0.52404253  0.94837316  0.04633766    -0.07500
N712        N  0.04757380  0.92456664  0.05269038    -0.60000
Mn713      Mn  0.44924915  0.96916679  0.02034937     1.20200
Mn714      Mn  0.03375967  0.00114371  0.05268935     1.10100
Cl715      Cl  0.49203830  0.50823064  0.49765747    -0.88000
C716        C  0.53081835  0.89687645  0.04378443     0.94400
C717        C  0.45978345  0.50766921  0.12291998     0.94200
N718        N  0.31138987  0.70922122  0.53958216    -0.08100
N719        N  0.32790482  0.68057526  0.54285065    -0.60200
N720        N  0.29288374  0.77849980  0.07459226    -0.07800
N721        N  0.29761499  0.79983657  0.09980826    -0.62400
N722        N  0.27364120  0.75427963  0.08464917    -0.07400
N723        N  0.26550619  0.75858452  0.11657087    -0.60200
N724        N  0.33044219  0.73201855  0.52634643    -0.07100
N725        N  0.36024559  0.71834911  0.51942883    -0.62700
C726        C  0.35821556  0.68635314  0.53083077     0.94100
C727        C  0.28028435  0.78729669  0.12571412     0.93800
N728        N  0.26184765  0.84234548  0.99434490    -0.08300
N729        N  0.24975098  0.87263029  0.99951564    -0.60800
N730        N  0.32574611  0.79526665  0.46550577    -0.06400
N731        N  0.35488822  0.80646783  0.45411084    -0.62100
N732        N  0.29986186  0.80260977  0.44161213    -0.08300
N733        N  0.31083369  0.81838271  0.41415979    -0.61100
N734        N  0.28775075  0.83445140  0.01783829    -0.06100
N735        N  0.29425065  0.85895177  0.03919336    -0.62200
Mn736      Mn  0.31090432  0.78441276  0.02132511     1.18400
C737        C  0.27062241  0.88277680  0.02750392     0.96100
C738        C  0.34545557  0.82045563  0.42143094     0.96800
N739        N  0.20350070  0.71462399  0.06602650    -0.08400
N740        N  0.19235022  0.69637226  0.09198120    -0.64700
N741        N  0.21646609  0.68352012  0.48973425    -0.07200
N742        N  0.20933937  0.65832610  0.46951027    -0.65300
N743        N  0.24197380  0.67578885  0.51371177    -0.07900
N744        N  0.25319223  0.64497772  0.51011893    -0.64900
N745        N  0.17810763  0.72128066  0.04124002    -0.06800
N746        N  0.14974623  0.70657712  0.05032094    -0.65600
Mn747      Mn  0.25823413  0.71371513  0.05174207     1.10700
C748        C  0.15824521  0.69166724  0.08275010     0.97400
C749        C  0.23223267  0.63435685  0.48253804     0.97400
N750        N  0.23083215  0.76352947  0.42257340    -0.07900
N751        N  0.24096494  0.75811285  0.39156700    -0.63200
N752        N  0.17298977  0.78621774  0.97935673    -0.07200
N753        N  0.14200760  0.79972284  0.98245913    -0.60000
N754        N  0.19267194  0.80890862  0.96686397    -0.08500
N755        N  0.17575789  0.83712275  0.96052382    -0.62800
N756        N  0.21195829  0.73905593  0.43270818    -0.07500
N757        N  0.20949971  0.71646266  0.40858815    -0.60000
Mn758      Mn  0.24570731  0.80428377  0.45578741     1.20200
Mn759      Mn  0.19318836  0.73340263  0.48555880     1.10100
Cl760      Cl  0.25188374  0.75900186  0.00372739    -0.88000
C761        C  0.22786173  0.72844137  0.38325808     0.94400
C762        C  0.14436746  0.83135826  0.96975143     0.94200
N763        N  0.43637895  0.76554119  0.20307204    -0.08100
N764        N  0.40327199  0.75907168  0.19774838    -0.60200
N765        N  0.50958831  0.80225337  0.18668463    -0.07800
N766        N  0.02761473  0.82155065  0.16764065    -0.62400
N767        N  0.50586526  0.77337698  0.17196375    -0.07400
N768        N  0.02080480  0.77236047  0.14290591    -0.60200
N769        N  0.44005362  0.79457171  0.21756315    -0.07100
N770        N  0.41003640  0.80846229  0.22211371    -0.62700
C771        C  0.38742925  0.78591402  0.21015298     0.94100
C772        C  0.03467959  0.80230009  0.14081150     0.93800
N773        N  0.05629186  0.81283475  0.28594691    -0.08300
N774        N  0.08987244  0.81611355  0.28712626    -0.60800
N775        N  0.46848048  0.82059524  0.28965889    -0.06400
N776        N  0.44031884  0.83710325  0.29754032    -0.62100
N777        N  0.48436535  0.80588881  0.31790599    -0.08300
N778        N  0.46718571  0.81230096  0.34541858    -0.61100
N779        N  0.04068827  0.82723763  0.25747848    -0.06100
N780        N  0.06348297  0.84041135  0.23857670    -0.62200
Mn781      Mn  0.48928818  0.81268896  0.23737320     1.18400
C782        C  0.09395595  0.83330949  0.25749575     0.96100
C783        C  0.43934271  0.83193172  0.33264838     0.96800
N784        N  0.02910445  0.70079893  0.18934057    -0.08400
N785        N  0.04468763  0.69502352  0.16085712    -0.64700
N786        N  0.47404490  0.67772023  0.24952377    -0.07200
N787        N  0.45178608  0.66386312  0.26854355    -0.65300
N788        N  0.45783729  0.69266016  0.22166403    -0.07900
N789        N  0.42430388  0.68919729  0.22116383    -0.64900
N790        N  0.04615569  0.68569842  0.21674795    -0.06800
N791        N  0.07383146  0.66936032  0.20692947    -0.65600
Mn792      Mn  0.48161937  0.73263091  0.19515130     1.10700
C793        C  0.07322472  0.67579805  0.17166300     0.97400
C794        C  0.42094759  0.67117082  0.25049254     0.97400
N795        N  0.00787111  0.73269389  0.33535574    -0.07900
N796        N  0.49071545  0.73522017  0.36281419    -0.63200
N797        N  0.07402744  0.71102587  0.29012543    -0.07200
N798        N  0.10416578  0.69738299  0.28546364    -0.60000
N799        N  0.07741335  0.74006375  0.30470112    -0.08500
N800        N  0.11043642  0.74681169  0.30983900    -0.62800
N801        N  0.00381322  0.70371301  0.32077072    -0.07500
N802        N  0.48300350  0.68595284  0.33843747    -0.60000
Mn803      Mn  0.03214044  0.77326585  0.31248350     1.20200
Mn804      Mn  0.02511260  0.69281942  0.26984686     1.10100
Cl805      Cl  0.50702957  0.75280077  0.25377650    -0.88000
C806        C  0.47500726  0.70625820  0.36418798     0.94400
C807        C  0.12651815  0.72017883  0.29732574     0.94200
N808        N  0.29087235  0.94296699  0.31611923    -0.08100
N809        N  0.30180127  0.91367601  0.33069720    -0.60200
N810        N  0.27528144  0.51856956  0.34405826    -0.07800
N811        N  0.27955775  0.53815427  0.37076854    -0.62400
N812        N  0.24812222  0.50036780  0.34584899    -0.07400
N813        N  0.23274706  0.50763119  0.37397339    -0.60200
N814        N  0.31715073  0.96232747  0.31357241    -0.07100
N815        N  0.34637526  0.94640761  0.32634094    -0.62700
C816        C  0.33674404  0.91573609  0.33694673     0.94100
C817        C  0.25312694  0.53104081  0.38940740     0.93800
N818        N  0.27886134  0.58187385  0.25682276    -0.08300
N819        N  0.28257718  0.61414603  0.25466350    -0.60800
N820        N  0.33381203  0.01697585  0.25431189    -0.06400
N821        N  0.36736013  0.01174057  0.25463972    -0.62100
N822        N  0.32040603  0.02975598  0.22380705    -0.08300
N823        N  0.34472529  0.03361958  0.20300701    -0.61100
N824        N  0.29305630  0.57001964  0.28743717    -0.06100
N825        N  0.30614918  0.59427010  0.30623061    -0.62200
Mn826      Mn  0.30554348  0.51684771  0.29982118     1.18400
C827        C  0.29985913  0.62177787  0.28555093     0.96100
C828        C  0.37349142  0.02246310  0.22256398     0.96800
N829        N  0.18304296  0.48443251  0.29202992    -0.08400
N830        N  0.15811126  0.48048626  0.31224419    -0.64700
N831        N  0.21208506  0.94383279  0.22881182    -0.07200
N832        N  0.20240595  0.91877334  0.20929488    -0.65300
N833        N  0.22622715  0.93263365  0.25960969    -0.07900
N834        N  0.22631504  0.90008857  0.26128636    -0.64900
N835        N  0.17024893  0.49710508  0.26127493    -0.06800
N836        N  0.13668537  0.50227484  0.26019115    -0.65600
Mn837      Mn  0.23654588  0.96455199  0.30386302     1.10700
C838        C  0.12968933  0.49173338  0.29201835     0.97400
C839        C  0.21118693  0.89148830  0.22981300     0.97400
N840        N  0.25561552  0.01378551  0.16962365    -0.07900
N841        N  0.27044366  0.00687067  0.14100516    -0.63200
N842        N  0.18681116  0.55112627  0.20104234    -0.07200
N843        N  0.15816749  0.56464357  0.18402836    -0.60000
N844        N  0.21248099  0.57139867  0.19901993    -0.08500
N845        N  0.20127858  0.59902936  0.18072231    -0.62800
N846        N  0.22884837  0.99513192  0.17177076    -0.07500
N847        N  0.22421407  0.97575087  0.14490083    -0.60000
Mn848      Mn  0.26718572  0.54989447  0.21205335     1.20200
Mn849      Mn  0.19883230  0.99686460  0.21592533     1.10100
Cl850      Cl  0.25197994  0.50720261  0.25795573    -0.88000
C851        C  0.25010358  0.98325347  0.12570666     0.94400
C852        C  0.16674958  0.59514272  0.17188742     0.94200
C853        C  0.35706264  0.67712885  0.24530600    -0.15300
C854        C  0.38794451  0.66672498  0.26478016     0.06800
C855        C  0.38698756  0.65179907  0.29789437    -0.15300
C856        C  0.35551463  0.64348159  0.30935667    -0.15300
C857        C  0.32503766  0.64830017  0.28673241     0.06800
C858        C  0.32558826  0.66872703  0.25671569    -0.15300
H859        H  0.35727011  0.68921694  0.21993002     0.10800
H860        H  0.41057278  0.64421482  0.31368218     0.10800
H861        H  0.35579291  0.62872277  0.33330805     0.10800
H862        H  0.30231736  0.67368463  0.23928346     0.10800
C863        C  0.15782652  0.83126079  0.26690850    -0.15300
C864        C  0.12756650  0.83847110  0.24484094     0.06800
C865        C  0.12980327  0.85177056  0.21119693    -0.15300
C866        C  0.16127287  0.86282181  0.20201150    -0.15300
C867        C  0.19004397  0.86194188  0.22716778     0.06800
C868        C  0.18927911  0.84207859  0.25758221    -0.15300
H869        H  0.15683347  0.81994941  0.29259534     0.10800
H870        H  0.10686244  0.85624415  0.19319433     0.10800
H871        H  0.16156239  0.87682989  0.17766814     0.10800
H872        H  0.21153616  0.83981704  0.27687221     0.10800
C873        C  0.23336479  0.92831898  0.04830232    -0.15300
C874        C  0.26619250  0.91379243  0.04656510     0.06800
C875        C  0.29450240  0.92637072  0.06729189    -0.15300
C876        C  0.28985089  0.95160940  0.09081167    -0.15300
C877        C  0.25666239  0.96411553  0.09467693     0.06800
C878        C  0.22858926  0.95292367  0.07252890    -0.15300
H879        H  0.21107831  0.91898823  0.03288158     0.10800
H880        H  0.32010951  0.91557137  0.06646870     0.10800
H881        H  0.31177751  0.95940489  0.10788450     0.10800
H882        H  0.20264888  0.96204174  0.07523232     0.10800
C883        C  0.21270886  0.56370778  0.42223803    -0.15300
C884        C  0.24591994  0.55053481  0.41974660     0.06800
C885        C  0.27368056  0.56161565  0.44226998    -0.15300
C886        C  0.26872917  0.58708931  0.46528905    -0.15300
C887        C  0.23611081  0.60248246  0.46531761     0.06800
C888        C  0.20791565  0.58982137  0.44457906    -0.15300
H889        H  0.19106325  0.55585535  0.40481853     0.10800
H890        H  0.29959625  0.55187498  0.44058630     0.10800
H891        H  0.29083364  0.59645909  0.48093455     0.10800
H892        H  0.18246461  0.60129723  0.44429014     0.10800
C893        C  0.21536058  0.74257991  0.32153902    -0.15300
C894        C  0.22227606  0.71740091  0.34731813     0.06800
C895        C  0.20682224  0.68668051  0.34221801    -0.15300
C896        C  0.17681438  0.68530057  0.31941063    -0.15300
C897        C  0.16368686  0.71448648  0.30186450     0.06800
C898        C  0.18493381  0.74160310  0.29943219    -0.15300
H899        H  0.22835557  0.76593760  0.32367077     0.10800
H900        H  0.21308061  0.66630149  0.36086358     0.10800
H901        H  0.16106207  0.66366786  0.32056942     0.10800
H902        H  0.17564245  0.76366418  0.28452033     0.10800
C903        C  0.32793138  0.76627168  0.20612425    -0.15300
C904        C  0.35040132  0.79255282  0.20495979     0.06800
C905        C  0.33828236  0.82317944  0.18990905    -0.16900
C906        C  0.30725947  0.82467945  0.16848682    -0.15300
C907        C  0.28952207  0.79534471  0.16217349     0.06800
C908        C  0.29644214  0.76819060  0.18561190    -0.15300
H909        H  0.33642961  0.74310937  0.21923428     0.10800
H910        H  0.35504247  0.84415683  0.18979682     0.10800
H911        H  0.30127865  0.84644076  0.15167221     0.10800
H912        H  0.28186874  0.74578503  0.18260361     0.10800
C913        C  0.39166372  0.60130328  0.54229442    -0.15300
C914        C  0.37811319  0.58931895  0.51008278     0.06800
C915        C  0.36664430  0.61208147  0.48277171    -0.15300
C916        C  0.36730500  0.64598499  0.48788451    -0.15300
C917        C  0.37797607  0.65788977  0.52084246     0.06800
C918        C  0.39132110  0.63543481  0.54768579    -0.15300
H919        H  0.40196977  0.58439693  0.06327946     0.10800
H920        H  0.35683728  0.60361662  0.45729051     0.10800
H921        H  0.35563135  0.66268033  0.46724479     0.10800
H922        H  0.39852556  0.64414413  0.57371334     0.10800
C923        C  0.11901758  0.90485251  0.01411691    -0.15300
C924        C  0.11228691  0.92800256  0.98597873     0.06800
C925        C  0.10904134  0.91651909  0.95184597    -0.15300
C926        C  0.11440141  0.88269080  0.94620392    -0.15300
C927        C  0.12199727  0.85993262  0.97456634     0.06800
C928        C  0.12294342  0.87121874  0.00849086    -0.15300
H929        H  0.12165514  0.91272591  0.04088736     0.10800
H930        H  0.10319906  0.93361656  0.42973187     0.10800
H931        H  0.11513367  0.87457794  0.91969661     0.10800
H932        H  0.13046867  0.85455155  0.03063848     0.10800
C933        C  0.05807965  0.96794172  0.34281349    -0.15300
C934        C  0.04020752  0.99840395  0.34208236     0.06800
C935        C  0.04665004  0.52361539  0.31818270    -0.15300
C936        C  0.07416095  0.51990248  0.29820530    -0.15300
C937        C  0.09538474  0.49136413  0.30312776     0.06800
C938        C  0.08609626  0.96454073  0.32358820    -0.15300
H939        H  0.05337491  0.94855806  0.36162781     0.10800
H940        H  0.03313812  0.54741698  0.31801970     0.10800
H941        H  0.08120547  0.54066065  0.28225274     0.10800
H942        H  0.10221203  0.94219639  0.32702240     0.10800
C943        C  0.44409486  0.48702758  0.17933674    -0.15300
C944        C  0.44858652  0.51380483  0.15661143     0.06800
C945        C  0.43635106  0.54554602  0.16313222    -0.15300
C946        C  0.41516624  0.04960421  0.18956299    -0.15300
C947        C  0.40669362  0.02189906  0.20925858     0.06800
C948        C  0.42339763  0.99123024  0.20628507    -0.15300
H949        H  0.45383515  0.46245395  0.17422884     0.10800
H950        H  0.43995463  0.56625343  0.14550618     0.10800
H951        H  0.40217040  0.07338338  0.19184648     0.10800
H952        H  0.41668527  0.96972596  0.22133470     0.10800
C953        C  0.52310943  0.83686527  0.05178427    -0.15300
C954        C  0.54401356  0.86429602  0.05694251     0.06800
C955        C  0.07127133  0.86311936  0.08390865    -0.15300
C956        C  0.07159610  0.83920087  0.11048836    -0.15300
C957        C  0.04603367  0.81562645  0.10874507     0.06800
C958        C  0.52442202  0.81211892  0.07772750    -0.15300
H959        H  0.50255167  0.83693347  0.03061168     0.10800
H960        H  0.08857644  0.88353005  0.08775437     0.10800
H961        H  0.08894599  0.84152435  0.13403328     0.10800
H962        H  0.50487206  0.79349568  0.07592209     0.10800
C963        C  0.41868733  0.65674736  0.41542562    -0.15300
C964        C  0.94171029  0.65339222  0.44587571     0.06800
C965        C  0.96469208  0.67879195  0.45408964    -0.15300
C966        C  0.97270179  0.70019619  0.42740243    -0.15300
C967        C  0.45667653  0.69635178  0.39357152     0.06800
C968        C  0.42717449  0.67754949  0.38843294    -0.15300
H969        H  0.39902438  0.63870083  0.40954119     0.10800
H970        H  0.98143946  0.67769873  0.47837531     0.10800
H971        H  0.99475506  0.71584658  0.43201098     0.10800
H972        H  0.41315515  0.67633869  0.36283902     0.10800
C973        C  0.41220426  0.84849702  0.85524988     0.84500
C974        C  0.42947791  0.87173491  0.88238291    -0.55700
C975        C  0.40762956  0.88775059  0.90249697     0.07400
C976        C  0.36906040  0.87885161  0.89343827     0.18400
C977        C  0.39124282  0.82468204  0.87730527    -0.56500
C978        C  0.36863110  0.83987347  0.89789403     0.07500
C979        C  0.38430581  0.87144372  0.83407827    -0.56000
C980        C  0.36167132  0.88794036  0.85330537     0.08100
H981        H  0.45689976  0.87646763  0.88429295     0.12600
H982        H  0.35131981  0.89205447  0.90952469    -0.01700
H983        H  0.39432622  0.79792100  0.87670825     0.12900
H984        H  0.38372413  0.87567894  0.80606588     0.12700
C985        C  0.09487415  0.61918567  0.59618353     0.84500
C986        C  0.11499462  0.64590495  0.57820444    -0.55700
C987        C  0.13597844  0.66509336  0.59987440     0.07400
C988        C  0.13362584  0.65448285  0.64040967     0.18400
C989        C  0.12237628  0.59876882  0.61993751    -0.56500
C990        C  0.14287144  0.61573127  0.64396714     0.07500
C991        C  0.07450629  0.63817897  0.62167267    -0.56000
C992        C  0.09335414  0.65665202  0.64562810     0.08100
H993        H  0.11319423  0.64892769  0.54997579     0.12600
H994        H  0.14974048  0.66941480  0.65916596    -0.01700
H995        H  0.12437298  0.57194915  0.61869083     0.12900
H996        H  0.04667611  0.63655291  0.62110487     0.12700
N997        N  0.02381783  0.02437244  0.92420610    -0.08100
N998        N  0.04509914  0.02185241  0.90000133    -0.60200
N999        N  0.45993857  0.56849666  0.94958817    -0.07800
N1000       N  0.43657057  0.59275516  0.94506955    -0.62400
N1001       N  0.98986816  0.57992729  0.96250990    -0.07400
N1002       N  0.98708264  0.61202220  0.96716713    -0.60200
N1003       N  0.99382516  0.01218877  0.91299933    -0.07100
N1004       N  0.99395441  0.00118292  0.88112263    -0.62700
C1005       C  0.02601688  0.00763283  0.87358452     0.94100
C1006       C  0.95357024  0.61966578  0.95655357     0.93800
N1007       N  0.40901105  0.50786259  0.00450140    -0.08300
N1008       N  0.39506527  0.52969894  0.52446190    -0.60800
N1009       N  0.44017003  0.96227193  0.93908941    -0.06400
N1010       N  0.42930155  0.94522804  0.91141509    -0.62100
N1011       N  0.43796594  0.94484501  0.96805707    -0.08300
N1012       N  0.42551314  0.91521285  0.96041343    -0.61100
N1013       N  0.40650041  0.51961371  0.97218750    -0.06100
N1014       N  0.38851889  0.54747827  0.96903791    -0.62200
Mn1015     Mn  0.45006356  0.51538211  0.94233628     1.18400
C1016       C  0.38210947  0.55424844  0.00157002     0.96100
C1017       C  0.42017489  0.91580689  0.92486567     0.96800
N1018       N  0.04827414  0.57117451  0.52821545    -0.08400
N1019       N  0.06574900  0.59834375  0.53662553    -0.64700
N1020       N  0.07714882  0.99617453  0.52271589    -0.07200
N1021       N  0.09572875  0.96871691  0.52628588    -0.65300
N1022       N  0.07551904  0.00817059  0.99058592    -0.07900
N1023       N  0.09118522  0.98706464  0.97103978    -0.64900
N1024       N  0.04442166  0.55378311  0.55679099    -0.06800
N1025       N  0.05862417  0.56851562  0.58473933    -0.65600
Mn1026     Mn  0.03530582  0.54709814  0.97550201     1.10700
C1027       C  0.07182118  0.59658092  0.57227848     0.97400
C1028       C  0.10401230  0.96262234  0.49418848     0.97400
N1029       N  0.49428668  0.93613570  0.53444374    -0.07900
N1030       N  0.49719531  0.90360993  0.53265386    -0.63200
N1031       N  0.49030397  0.50478638  0.58205899    -0.07200
N1032       N  0.49127073  0.51481280  0.61430430    -0.60000
N1033       N  0.46025224  0.49235326  0.57157770    -0.08500
N1034       N  0.43995812  0.49367059  0.59684893    -0.62800
N1035       N  0.52406433  0.94836829  0.54635040    -0.07500
N1036       N  0.04755331  0.92457155  0.55268482    -0.60000
Mn1037     Mn  0.44926779  0.96916677  0.52037498     1.20200
Mn1038     Mn  0.03373365  0.00114970  0.55267818     1.10100
Cl1039     Cl  0.49202045  0.50823597  0.99764114    -0.88000
C1040       C  0.53083776  0.89687216  0.54379076     0.94400
C1041       C  0.45981566  0.50769838  0.62293384     0.94200
N1042       N  0.31141002  0.70921900  0.03956315    -0.08100
N1043       N  0.32792447  0.68057284  0.04282618    -0.60200
N1044       N  0.29285990  0.77850437  0.57460587    -0.07800
N1045       N  0.29759502  0.79983851  0.59982382    -0.62400
N1046       N  0.27361619  0.75428478  0.58466183    -0.07400
N1047       N  0.26548454  0.75858736  0.61658517    -0.60200
N1048       N  0.33045950  0.73201672  0.02632393    -0.07100
N1049       N  0.36025999  0.71834725  0.01939785    -0.62700
C1050       C  0.35823167  0.68635083  0.03079875     0.94100
C1051       C  0.28026603  0.78729762  0.62573045     0.93800
N1052       N  0.26183327  0.84234614  0.49434793    -0.08300
N1053       N  0.24973542  0.87263179  0.49951232    -0.60800
N1054       N  0.32575546  0.79526846  0.96548659    -0.06400
N1055       N  0.35489577  0.80646876  0.95408671    -0.62100
N1056       N  0.29986777  0.80261457  0.94159784    -0.08300
N1057       N  0.31083534  0.81838898  0.91414409    -0.61100
N1058       N  0.28773221  0.83445396  0.51784690    -0.06100
N1059       N  0.29422822  0.85895696  0.53919960    -0.62200
Mn1060     Mn  0.31088662  0.78441488  0.52134146     1.18400
C1061       C  0.27060177  0.88278119  0.52750258     0.96100
C1062       C  0.34545819  0.82045957  0.92140899     0.96800
N1063       N  0.20347604  0.71463012  0.56603126    -0.08400
N1064       N  0.19232329  0.69637841  0.59198473    -0.64700
N1065       N  0.21648301  0.68351674  0.98972555    -0.07200
N1066       N  0.20935405  0.65832322  0.96950141    -0.65300
N1067       N  0.24199302  0.67578493  0.01370028    -0.07900
N1068       N  0.25321092  0.64497395  0.01010522    -0.64900
N1069       N  0.17808526  0.72128575  0.54124194    -0.06800
N1070       N  0.14972325  0.70658096  0.55031986    -0.65600
Mn1071     Mn  0.25821156  0.71371967  0.55175373     1.10700
C1072       C  0.15821934  0.69167171  0.58274994     0.97400
C1073       C  0.23224857  0.63435367  0.98252599     0.97400
N1074       N  0.23083756  0.76353287  0.92256686    -0.07900
N1075       N  0.24096574  0.75811948  0.89155789    -0.63200
N1076       N  0.17297615  0.78622300  0.47935361    -0.07200
N1077       N  0.14199517  0.79973197  0.48245418    -0.60000
N1078       N  0.19266100  0.80891101  0.46685996    -0.08500
N1079       N  0.17575011  0.83712656  0.46051737    -0.62800
N1080       N  0.21196692  0.73905718  0.93270261    -0.07500
N1081       N  0.20950581  0.71646589  0.90858064    -0.60000
Mn1082     Mn  0.24571614  0.80428553  0.95578259     1.20200
Mn1083     Mn  0.19320418  0.73339906  0.98555557     1.10100
Cl1084     Cl  0.25186734  0.75900411  0.50373668    -0.88000
C1085       C  0.22786299  0.72844797  0.88324832     0.94400
C1086       C  0.14435868  0.83136650  0.46974459     0.94200
N1087       N  0.43639361  0.76553123  0.70305168    -0.08100
N1088       N  0.40328689  0.75906052  0.69772742    -0.60200
N1089       N  0.50960578  0.80224325  0.68667226    -0.07800
N1090       N  0.02759264  0.82156196  0.66765166    -0.62400
N1091       N  0.50588418  0.77336665  0.67195162    -0.07400
N1092       N  0.02078131  0.77237209  0.64291648    -0.60200
N1093       N  0.44006686  0.79456242  0.71754184    -0.07100
N1094       N  0.41004898  0.80845221  0.72209112    -0.62700
C1095       C  0.38744295  0.78590310  0.71013023     0.94100
C1096       C  0.03465475  0.80231227  0.64082088     0.93800
N1097       N  0.05628255  0.81284392  0.78595618    -0.08300
N1098       N  0.08986284  0.81612326  0.78713090    -0.60800
N1099       N  0.46848611  0.82058847  0.78963965    -0.06400
N1100       N  0.44032431  0.83709842  0.79751769    -0.62100
N1101       N  0.48436811  0.80588275  0.81788859    -0.08300
N1102       N  0.46718637  0.81229747  0.84539909    -0.61100
N1103       N  0.04067526  0.82724726  0.75748978    -0.06100
N1104       N  0.06346690  0.84042183  0.73858491    -0.62200
Mn1105     Mn  0.48929985  0.81268022  0.73735717     1.18400
C1106       C  0.09394209  0.83332010  0.75749974     0.96100
C1107       C  0.43934501  0.83192892  0.83262560     0.96800
N1108       N  0.02908544  0.70080784  0.68934915    -0.08400
N1109       N  0.04466357  0.69503078  0.66086292    -0.64700
N1110       N  0.47405706  0.67770991  0.74950784    -0.07200
N1111       N  0.45179688  0.66385078  0.76852448    -0.65300
N1112       N  0.45785152  0.69264970  0.72164701    -0.07900
N1113       N  0.42431803  0.68918486  0.72114297    -0.64900
N1114       N  0.04613965  0.68570710  0.71675470    -0.06800
N1115       N  0.07381265  0.66936743  0.70693224    -0.65600
Mn1116     Mn  0.48163601  0.73262095  0.69513671     1.10700
C1117       C  0.07320071  0.67580410  0.67166513     0.97400
C1118       C  0.42095960  0.67115704  0.75047042     0.97400
N1119       N  0.00787060  0.73269984  0.83537077    -0.07900
N1120       N  0.49071024  0.73521598  0.86279532    -0.63200
N1121       N  0.07402023  0.71103520  0.79012972    -0.07200
N1122       N  0.10415789  0.69739350  0.78546340    -0.60000
N1123       N  0.07740722  0.74007274  0.80470604    -0.08500
N1124       N  0.11043027  0.74682154  0.80983986    -0.62800
N1125       N  0.00381212  0.70371925  0.82078533    -0.07500
N1126       N  0.48300073  0.68594798  0.83841958    -0.60000
Mn1127     Mn  0.03213520  0.77327342  0.81249525     1.20200
Mn1128     Mn  0.02510376  0.69282789  0.76985724     1.10100
Cl1129     Cl  0.50703967  0.75279228  0.75376355    -0.88000
C1130       C  0.47500014  0.70625501  0.86416713     0.94400
C1131       C  0.12651086  0.72018965  0.79732341     0.94200
N1132       N  0.29087081  0.94296622  0.81609095    -0.08100
N1133       N  0.30180143  0.91367577  0.83066894    -0.60200
N1134       N  0.27528389  0.51856524  0.84403948    -0.07800
N1135       N  0.27956257  0.53815063  0.87074906    -0.62400
N1136       N  0.24812538  0.50036311  0.84583363    -0.07400
N1137       N  0.23275330  0.50762689  0.87395987    -0.60200
N1138       N  0.31714833  0.96232700  0.81354012    -0.07100
N1139       N  0.34637406  0.94640748  0.82630635    -0.62700
C1140       C  0.33674438  0.91573583  0.83691420     0.94100
C1141       C  0.25313428  0.53103707  0.88939138     0.93800
N1142       N  0.27884363  0.58187893  0.75680921    -0.08300
N1143       N  0.28256587  0.61415034  0.75465011    -0.60800
N1144       N  0.33379588  0.01698634  0.75427714    -0.06400
N1145       N  0.36734670  0.01177257  0.75459925    -0.62100
N1146       N  0.32037984  0.02976947  0.72377713    -0.08300
N1147       N  0.34469369  0.03365582  0.70297549    -0.61100
N1148       N  0.29304592  0.57002140  0.78741953    -0.06100
N1149       N  0.30614907  0.59426888  0.80621050    -0.62200
Mn1150     Mn  0.30553683  0.51684863  0.79979489     1.18400
C1151       C  0.29985897  0.62177813  0.78553333     0.96100
C1152       C  0.37346818  0.02251037  0.72252519     0.96800
N1153       N  0.18303724  0.48442571  0.79202600    -0.08400
N1154       N  0.15811050  0.48046823  0.81224406    -0.64700
N1155       N  0.21206837  0.94383586  0.72879647    -0.07200
N1156       N  0.20238535  0.91877774  0.70927931    -0.65300
N1157       N  0.22621721  0.93263461  0.75959100    -0.07900
N1158       N  0.22630565  0.90008943  0.76126511    -0.64900
N1159       N  0.17023511  0.49709998  0.76127433    -0.06800
N1160       N  0.13667042  0.50225931  0.76019704    -0.65600
Mn1161     Mn  0.23654273  0.96454954  0.80384637     1.10700
C1162       C  0.12968247  0.49170993  0.79202453     0.97400
C1163       C  0.21117055  0.89149127  0.72979386     0.97400
N1164       N  0.25558250  0.01379807  0.66960659    -0.07900
N1165       N  0.27040844  0.00688551  0.64098632    -0.63200
N1166       N  0.18678372  0.55113075  0.70104036    -0.07200
N1167       N  0.15813919  0.56464703  0.68402678    -0.60000
N1168       N  0.21245228  0.57140460  0.69901720    -0.08500
N1169       N  0.20124828  0.59903491  0.68072008    -0.62800
N1170       N  0.22881735  0.99514235  0.67175579    -0.07500
N1171       N  0.22418214  0.97576197  0.64488529    -0.60000
Mn1172     Mn  0.26715820  0.54990298  0.71203844     1.20200
Mn1173     Mn  0.19880988  0.99686805  0.71591738     1.10100
Cl1174     Cl  0.25196494  0.50720523  0.75793945    -0.88000
C1175       C  0.25006895  0.98326764  0.62568856     0.94400
C1176       C  0.16671971  0.59514684  0.67188589     0.94200
C1177       C  0.35707439  0.67711346  0.74527857    -0.15300
C1178       C  0.38795510  0.66671035  0.76475517     0.06800
C1179       C  0.38699594  0.65178667  0.79787013    -0.15300
C1180       C  0.35552184  0.64347291  0.80933234    -0.15300
C1181       C  0.32504512  0.64829374  0.78670802     0.06800
C1182       C  0.32559877  0.66871594  0.75668831    -0.15300
H1183       H  0.35728360  0.68919865  0.71990134     0.10800
H1184       H  0.41058025  0.64420251  0.81365955     0.10800
H1185       H  0.35579818  0.62871680  0.83328532     0.10800
H1186       H  0.30232861  0.67367455  0.73925535     0.10800
C1187       C  0.15781337  0.83126821  0.76690051    -0.15300
C1188       C  0.12755016  0.83848076  0.74483873     0.06800
C1189       C  0.12978140  0.85178015  0.71119365    -0.15300
C1190       C  0.16124966  0.86282851  0.70200142    -0.15300
C1191       C  0.19002539  0.86194604  0.72715215     0.06800
C1192       C  0.18926471  0.84208269  0.75756723    -0.15300
H1193       H  0.15682434  0.81995735  0.79258822     0.10800
H1194       H  0.10683780  0.85625575  0.69319556     0.10800
H1195       H  0.16153548  0.87683666  0.67765757     0.10800
H1196       H  0.21152508  0.83981908  0.77685294     0.10800
C1197       C  0.23333833  0.92832340  0.54829142    -0.15300
C1198       C  0.26616792  0.91379966  0.54655748     0.06800
C1199       C  0.29447573  0.92638382  0.56728215    -0.15300
C1200       C  0.28982042  0.95162538  0.59079749    -0.15300
C1201       C  0.25663020  0.96412826  0.59466066     0.06800
C1202       C  0.22855900  0.95293090  0.57251393    -0.15300
H1203       H  0.21105344  0.91898805  0.53287199     0.10800
H1204       H  0.32008413  0.91558673  0.56646115     0.10800
H1205       H  0.31174566  0.95942530  0.60786939     0.10800
H1206       H  0.20261739  0.96204645  0.57521579     0.10800
C1207       C  0.21271952  0.56370525  0.92222541    -0.15300
C1208       C  0.24593005  0.55053208  0.91973102     0.06800
C1209       C  0.27369231  0.56161300  0.94225217    -0.15300
C1210       C  0.26874282  0.58708631  0.96527230    -0.15300
C1211       C  0.23612492  0.60247961  0.96530390     0.06800
C1212       C  0.20792829  0.58981875  0.94456731    -0.15300
H1213       H  0.19107255  0.55585282  0.90480774     0.10800
H1214       H  0.29960763  0.55187225  0.94056641     0.10800
H1215       H  0.29084807  0.59645549  0.98091678     0.10800
H1216       H  0.18247746  0.60129454  0.94428079     0.10800
C1217       C  0.21535370  0.74259139  0.82153099    -0.15300
C1218       C  0.22227211  0.71741057  0.84730764     0.06800
C1219       C  0.20681821  0.68669030  0.84220686    -0.15300
C1220       C  0.17680884  0.68531115  0.81940163    -0.15300
C1221       C  0.16367964  0.71449780  0.80185826     0.06800
C1222       C  0.18492571  0.74161502  0.79942604    -0.15300
H1223       H  0.22834823  0.76594929  0.82366339     0.10800
H1224       H  0.21307845  0.66631014  0.86085061     0.10800
H1225       H  0.16105708  0.66367807  0.82056035     0.10800
H1226       H  0.17563295  0.76367658  0.78451600     0.10800
C1227       C  0.32794666  0.76625491  0.70611346    -0.15300
C1228       C  0.35041395  0.79253777  0.70494491     0.06800
C1229       C  0.33828690  0.82316753  0.68990826    -0.16900
C1230       C  0.30725314  0.82467200  0.66850360    -0.15300
C1231       C  0.28951432  0.79533799  0.66219033     0.06800
C1232       C  0.29644733  0.76817807  0.68561880    -0.15300
H1233       H  0.33645145  0.74309009  0.71921422     0.10800
H1234       H  0.35504506  0.84414626  0.68979389     0.10800
H1235       H  0.30126276  0.84643765  0.65169780     0.10800
H1236       H  0.28187339  0.74577274  0.68261203     0.10800
C1237       C  0.39167117  0.60130103  0.04225185    -0.15300
C1238       C  0.37809961  0.58931581  0.01004794     0.06800
C1239       C  0.36662189  0.61207724  0.98273905    -0.15300
C1240       C  0.36729317  0.64598111  0.98784795    -0.15300
C1241       C  0.37798508  0.65788743  0.02080035     0.06800
C1242       C  0.39134067  0.63543301  0.04763951    -0.15300
H1243       H  0.40195370  0.58439878  0.56332517     0.10800
H1244       H  0.35680056  0.60361105  0.95726280     0.10800
H1245       H  0.35561185  0.66267648  0.96721207     0.10800
H1246       H  0.39856213  0.64414369  0.07366320     0.10800
C1247       C  0.11900764  0.90486301  0.51411168    -0.15300
C1248       C  0.11227700  0.92801402  0.48597433     0.06800
C1249       C  0.10903622  0.91653182  0.45184094    -0.15300
C1250       C  0.11439917  0.88270395  0.44619775    -0.15300
C1251       C  0.12199258  0.85994447  0.47455953     0.06800
C1252       C  0.12293663  0.87122961  0.50848438    -0.15300
H1253       H  0.12164200  0.91273535  0.54088252     0.10800
H1254       H  0.10320357  0.93360319  0.92973648     0.10800
H1255       H  0.11513367  0.87459220  0.41969033     0.10800
H1256       H  0.13046072  0.85456177  0.53063174     0.10800
C1257       C  0.05809895  0.96790605  0.84285112    -0.15300
C1258       C  0.04020626  0.99835852  0.84210161     0.06800
C1259       C  0.04662626  0.52355994  0.81818126    -0.15300
C1260       C  0.07413596  0.51985131  0.79820126    -0.15300
C1261       C  0.09538022  0.49132747  0.80314050     0.06800
C1262       C  0.08611328  0.96450953  0.82362199    -0.15300
H1263       H  0.05341132  0.94853028  0.86168088     0.10800
H1264       H  0.03309834  0.54735443  0.81800368     0.10800
H1265       H  0.08116306  0.54060506  0.78223230     0.10800
H1266       H  0.10224395  0.94217549  0.82706908     0.10800
C1267       C  0.44417823  0.48713071  0.67939829    -0.15300
C1268       C  0.44860846  0.51387654  0.65661127     0.06800
C1269       C  0.43628712  0.54560705  0.66305004    -0.15300
C1270       C  0.41508350  0.04967174  0.68946286    -0.15300
C1271       C  0.40667096  0.02198292  0.70921834     0.06800
C1272       C  0.42345604  0.99134075  0.70632566    -0.15300
H1273       H  0.45398300  0.46256518  0.67435194     0.10800
H1274       H  0.43984235  0.56628994  0.64537562     0.10800
H1275       H  0.40202940  0.07343159  0.69168697     0.10800
H1276       H  0.41679315  0.96984879  0.72142358     0.10800
C1277       C  0.52313237  0.83685960  0.55178039    -0.15300
C1278       C  0.54403534  0.86429061  0.55694215     0.06800
C1279       C  0.07124895  0.86312681  0.58391111    -0.15300
C1280       C  0.07157056  0.83921247  0.61049471    -0.15300
C1281       C  0.04600733  0.81563876  0.60875355     0.06800
C1282       C  0.52444712  0.81210985  0.57772010    -0.15300
H1283       H  0.50257362  0.83692995  0.53060868     0.10800
H1284       H  0.08855529  0.88353692  0.58775411     0.10800
H1285       H  0.08891972  0.84153792  0.63403953     0.10800
H1286       H  0.50489744  0.79348633  0.57591302     0.10800
C1287       C  0.41867061  0.65674885  0.91539834    -0.15300
C1288       C  0.94173024  0.65338864  0.94590116     0.06800
C1289       C  0.96471382  0.67878729  0.95411339    -0.15300
C1290       C  0.97272057  0.70019264  0.92742578    -0.15300
C1291       C  0.45666368  0.69635124  0.89354746     0.06800
C1292       C  0.42716208  0.67754875  0.88840571    -0.15300
H1293       H  0.39900865  0.63870169  0.90951242     0.10800
H1294       H  0.98146420  0.67769245  0.97839714     0.10800
H1295       H  0.99477454  0.71584245  0.93203217     0.10800
H1296       H  0.41314668  0.67633596  0.86281006     0.10800
C1297       C  0.91220396  0.34849778  0.35524768     0.84500
C1298       C  0.92947782  0.37173524  0.38238090    -0.55700
C1299       C  0.90762962  0.38775086  0.40249505     0.07400
C1300       C  0.86906039  0.37885244  0.39343623     0.18400
C1301       C  0.89124235  0.32468281  0.37730290    -0.56500
C1302       C  0.86863077  0.33987426  0.39789179     0.07500
C1303       C  0.88430582  0.37144488  0.33407615    -0.56000
C1304       C  0.86167159  0.38794175  0.35330337     0.08100
H1305       H  0.95689973  0.37646774  0.38429108     0.12600
H1306       H  0.85131993  0.39205535  0.40952277    -0.01700
H1307       H  0.89432575  0.29792177  0.37670587     0.12900
H1308       H  0.88372425  0.37568023  0.30606378     0.12700
C1309       C  0.59487515  0.11918486  0.09618678     0.84500
C1310       C  0.61499611  0.14590348  0.07820736    -0.55700
C1311       C  0.63598030  0.16509182  0.09987696     0.07400
C1312       C  0.63362771  0.15448175  0.14041242     0.18400
C1313       C  0.62237691  0.09876766  0.11994084    -0.56500
C1314       C  0.64287249  0.11572994  0.14397030     0.07500
C1315       C  0.57450779  0.13817878  0.12167577    -0.56000
C1316       C  0.59335603  0.15665174  0.14563091     0.08100
H1317       H  0.61319553  0.14892596  0.04997869     0.12600
H1318       H  0.64974271  0.16941360  0.15916851    -0.01700
H1319       H  0.62437306  0.07194795  0.11869432     0.12900
H1320       H  0.54667757  0.13655328  0.12110803     0.12700
N1321       N  0.52381983  0.52436876  0.42420397    -0.08100
N1322       N  0.54510154  0.52184575  0.39999985    -0.60200
N1323       N  0.95993618  0.06849673  0.44959077    -0.07800
N1324       N  0.93656825  0.09275520  0.44507071    -0.62400
N1325       N  0.48986558  0.07992777  0.46251254    -0.07400
N1326       N  0.48707996  0.11202291  0.46716827    -0.60200
N1327       N  0.49382656  0.51218633  0.41299731    -0.07100
N1328       N  0.49395559  0.50117857  0.38112140    -0.62700
C1329       C  0.52601872  0.50762574  0.37358365     0.94100
C1330       C  0.45356770  0.11966621  0.45655377     0.93800
N1331       N  0.90901091  0.00786192  0.50450469    -0.08300
N1332       N  0.89506406  0.02969916  0.02446449    -0.60800
N1333       N  0.94017088  0.46227147  0.43908745    -0.06400
N1334       N  0.92930209  0.44522780  0.41141313    -0.62100
N1335       N  0.93796691  0.44484450  0.46805508    -0.08300
N1336       N  0.92551376  0.41521250  0.46041144    -0.61100
N1337       N  0.90649904  0.01961257  0.47219055    -0.06100
N1338       N  0.88851793  0.04747737  0.46904136    -0.62200
Mn1339     Mn  0.95006199  0.01538193  0.44233865     1.18400
C1340       C  0.88211051  0.05424841  0.50157383     0.96100
C1341       C  0.92017522  0.41580680  0.42486373     0.96800
N1342       N  0.54827284  0.07117563  0.02821861    -0.08400
N1343       N  0.56574837  0.09834442  0.03662895    -0.64700
N1344       N  0.57714927  0.49617306  0.02271541    -0.07200
N1345       N  0.59572820  0.46871479  0.02628582    -0.65300
N1346       N  0.57552032  0.50816822  0.49058451    -0.07900
N1347       N  0.59118587  0.48706152  0.47103872    -0.64900
N1348       N  0.54442089  0.05378365  0.05679388    -0.06800
N1349       N  0.55862437  0.06851534  0.08474234    -0.65600
Mn1350     Mn  0.53530395  0.04709940  0.47550384     1.10700
C1351       C  0.57182146  0.09658072  0.07228180     0.97400
C1352       C  0.60401146  0.46261935  0.99418851     0.97400
N1353       N  0.99428596  0.43613579  0.03444273    -0.07900
N1354       N  0.99719418  0.40360990  0.03265372    -0.63200
N1355       N  0.99030377  0.00478645  0.08206119    -0.07200
N1356       N  0.99127069  0.01481353  0.11430625    -0.60000
N1357       N  0.96025181  0.99235371  0.07158006    -0.08500
N1358       N  0.93995763  0.99367205  0.09685122    -0.62800
N1359       N  0.02406358  0.44836817  0.04634987    -0.07500
N1360       N  0.54755210  0.42457124  0.05268545    -0.60000
Mn1361     Mn  0.94926761  0.46916738  0.02037272     1.20200
Mn1362     Mn  0.53373355  0.50114953  0.05267689     1.10100
Cl1363     Cl  0.99201961  0.00823601  0.49764306    -0.88000
C1364       C  0.03083639  0.39687190  0.04379156     0.94400
C1365       C  0.95981547  0.00769998  0.12293587     0.94200
N1366       N  0.81141141  0.20921861  0.53956147    -0.08100
N1367       N  0.82792671  0.18057290  0.54282574    -0.60200
N1368       N  0.79286011  0.27850440  0.07460665    -0.07800
N1369       N  0.79759564  0.29983832  0.09982478    -0.62400
N1370       N  0.77361687  0.25428454  0.08466287    -0.07400
N1371       N  0.76548604  0.25858667  0.11658660    -0.60200
N1372       N  0.83046075  0.23201662  0.52632254    -0.07100
N1373       N  0.86026202  0.21834775  0.51939789    -0.62700
C1374       C  0.85823429  0.18635141  0.53079935     0.94100
C1375       C  0.78026738  0.28729703  0.12573177     0.93800
N1376       N  0.76183132  0.34234606  0.99434888    -0.08300
N1377       N  0.74973359  0.37263178  0.99951333    -0.60800
N1378       N  0.82575580  0.29526882  0.46548477    -0.06400
N1379       N  0.85489595  0.30646938  0.45408473    -0.62100
N1380       N  0.79986796  0.30261492  0.44159617    -0.08300
N1381       N  0.81083526  0.31838948  0.41414237    -0.61100
N1382       N  0.78773053  0.33445392  0.01784757    -0.06100
N1383       N  0.79422669  0.35895686  0.03920023    -0.62200
Mn1384     Mn  0.81088608  0.28441536  0.02134179     1.18400
C1385       C  0.77060016  0.38278109  0.02750354     0.96100
C1386       C  0.84545811  0.32046029  0.42140707     0.96800
N1387       N  0.70347708  0.21462886  0.06603245    -0.08400
N1388       N  0.69232477  0.19637731  0.09198628    -0.64700
N1389       N  0.71648455  0.18351541  0.48972325    -0.07200
N1390       N  0.70935500  0.15832157  0.46949981    -0.65300
N1391       N  0.74199439  0.17578364  0.51369821    -0.07900
N1392       N  0.75321151  0.14497227  0.51010400    -0.64900
N1393       N  0.67808610  0.22128388  0.04124316    -0.06800
N1394       N  0.64972438  0.20657884  0.05032151    -0.65600
Mn1395     Mn  0.75821252  0.21371925  0.05175473     1.10700
C1396       C  0.65822086  0.19167009  0.08275181     0.97400
C1397       C  0.73224897  0.13435181  0.48252499     0.97400
N1398       N  0.73083875  0.26353245  0.42256490    -0.07900
N1399       N  0.74096782  0.25811947  0.39155622    -0.63200
N1400       N  0.67297515  0.28622070  0.97935443    -0.07200
N1401       N  0.64199377  0.29972873  0.98245504    -0.60000
N1402       N  0.69265927  0.30890931  0.96686072    -0.08500
N1403       N  0.67574741  0.33712435  0.96051800    -0.62800
N1404       N  0.71196857  0.23905622  0.43270021    -0.07500
N1405       N  0.70950863  0.21646499  0.40857808    -0.60000
Mn1406     Mn  0.74571635  0.30428508  0.45578094     1.20200
Mn1407     Mn  0.69320533  0.23339742  0.48555324     1.10100
Cl1408     Cl  0.75186722  0.25900370  0.00373744    -0.88000
C1409       C  0.72786607  0.22844768  0.38324619     0.94400
C1410       C  0.64435616  0.33136334  0.96974528     0.94200
N1411       N  0.93639496  0.26553192  0.20305146    -0.08100
N1412       N  0.90328818  0.25906126  0.19772778    -0.60200
N1413       N  0.00960806  0.30224294  0.18667220    -0.07800
N1414       N  0.52759533  0.32156113  0.16765147    -0.62400
N1415       N  0.00588617  0.27336620  0.17195199    -0.07400
N1416       N  0.52078366  0.27237098  0.14291705    -0.60200
N1417       N  0.94006845  0.29456341  0.21754087    -0.07100
N1418       N  0.91005072  0.30845349  0.22209021    -0.62700
C1419       C  0.88744452  0.28590424  0.21013014     0.94100
C1420       C  0.53465750  0.30231093  0.14082107     0.93800
N1421       N  0.55628352  0.31284408  0.28595657    -0.08300
N1422       N  0.58986388  0.31612321  0.28713163    -0.60800
N1423       N  0.96848684  0.32058941  0.28963847    -0.06400
N1424       N  0.94032473  0.33709926  0.29751591    -0.62100
N1425       N  0.98436830  0.30588371  0.31788767    -0.08300
N1426       N  0.96718596  0.31229831  0.34539772    -0.61100
N1427       N  0.54067665  0.32724730  0.25748988    -0.06100
N1428       N  0.56346861  0.34042156  0.23858520    -0.62200
Mn1429     Mn  0.98930142  0.31268070  0.23735657     1.18400
C1430       C  0.59394357  0.33331978  0.25750040     0.96100
C1431       C  0.93934479  0.33192968  0.33262371     0.96800
N1432       N  0.52908683  0.20080789  0.18935065    -0.08400
N1433       N  0.54466552  0.19503083  0.16086478    -0.64700
N1434       N  0.97405776  0.17771029  0.24950827    -0.07200
N1435       N  0.95179777  0.16385031  0.26852444    -0.65300
N1436       N  0.95785213  0.19265029  0.22164764    -0.07900
N1437       N  0.92431863  0.18918492  0.22114338    -0.64900
N1438       N  0.54614081  0.18570745  0.21675651    -0.06800
N1439       N  0.57381411  0.16936788  0.20693460    -0.65600
Mn1440     Mn  0.98163724  0.23262115  0.19513730     1.10700
C1441       C  0.57320270  0.17580440  0.17166752     0.97400
C1442       C  0.92096043  0.17115634  0.25047044     0.97400
N1443       N  0.50786959  0.23270091  0.33537114    -0.07900
N1444       N  0.99070804  0.23521757  0.36279487    -0.63200
N1445       N  0.57402053  0.21103545  0.29013218    -0.07200
N1446       N  0.60415834  0.19739364  0.28546657    -0.60000
N1447       N  0.57740733  0.24007309  0.30470835    -0.08500
N1448       N  0.61043034  0.24682191  0.30984268    -0.62800
N1449       N  0.50381124  0.20372029  0.32078574    -0.07500
N1450       N  0.98299879  0.18594957  0.33841909    -0.60000
Mn1451     Mn  0.53213528  0.27327413  0.31249586     1.20200
Mn1452     Mn  0.52510413  0.19282845  0.26985849     1.10100
Cl1453     Cl  0.00704049  0.25279278  0.25376399    -0.88000
C1454       C  0.97499737  0.20625682  0.36416613     0.94400
C1455       C  0.62651116  0.22018985  0.29732686     0.94200
N1456       N  0.79087173  0.44296850  0.31608941    -0.08100
N1457       N  0.80180216  0.41367789  0.33066708    -0.60200
N1458       N  0.77528469  0.01856152  0.34404197    -0.07800
N1459       N  0.77956301  0.03814683  0.37075165    -0.62400
N1460       N  0.74812624  0.00035924  0.34583584    -0.07400
N1461       N  0.73275380  0.00762287  0.37396188    -0.60200
N1462       N  0.81714925  0.46232929  0.31353882    -0.07100
N1463       N  0.84637493  0.44640951  0.32630496    -0.62700
C1464       C  0.83674506  0.41573773  0.33691245     0.94100
C1465       C  0.75313455  0.03103305  0.38939364     0.93800
N1466       N  0.77884397  0.08187647  0.25681256    -0.08300
N1467       N  0.78256658  0.11414778  0.25465327    -0.60800
N1468       N  0.83379558  0.51698882  0.25427548    -0.06400
N1469       N  0.86734621  0.51177416  0.25459724    -0.62100
N1470       N  0.82037943  0.52977186  0.22377549    -0.08300
N1471       N  0.84469308  0.53365725  0.20297340    -0.61100
N1472       N  0.79304668  0.07001882  0.28742268    -0.06100
N1473       N  0.80615067  0.09426620  0.30621326    -0.62200
Mn1474     Mn  0.80553762  0.01684583  0.29979731     1.18400
C1475       C  0.79986051  0.12177547  0.28553605     0.96100
C1476       C  0.87346749  0.52251135  0.22252297     0.96800
N1477       N  0.68303799  0.98442263  0.29202866    -0.08400
N1478       N  0.65811149  0.98046646  0.31224735    -0.64700
N1479       N  0.71206870  0.44383745  0.22879551    -0.07200
N1480       N  0.70238525  0.41877899  0.20927899    -0.65300
N1481       N  0.72621835  0.43263663  0.25958990    -0.07900
N1482       N  0.72630718  0.40009150  0.26126447    -0.64900
N1483       N  0.67023588  0.99709749  0.26127726    -0.06800
N1484       N  0.63667149  0.00225852  0.26020071    -0.65600
Mn1485     Mn  0.73654385  0.46455158  0.30384516     1.10700
C1486       C  0.62968365  0.99170961  0.29202842     0.97400
C1487       C  0.71117130  0.39149281  0.22979379     0.97400
N1488       N  0.75558183  0.51380017  0.16960533    -0.07900
N1489       N  0.77040778  0.50688769  0.14098509    -0.63200
N1490       N  0.68678415  0.05112899  0.20104358    -0.07200
N1491       N  0.65813976  0.06464539  0.18402981    -0.60000
N1492       N  0.71245277  0.07140282  0.19902067    -0.08500
N1493       N  0.70124897  0.09903322  0.18072365    -0.62800
N1494       N  0.72881677  0.49514431  0.17175455    -0.07500
N1495       N  0.72418157  0.47576398  0.14488400    -0.60000
Mn1496     Mn  0.76715858  0.04990106  0.21204157     1.20200
Mn1497     Mn  0.69880982  0.49686962  0.21591643     1.10100
Cl1498     Cl  0.75196564  0.00720264  0.25794198    -0.88000
C1499       C  0.75006833  0.48326983  0.12568729     0.94400
C1500       C  0.66672045  0.09514526  0.17188915     0.94200
C1501       C  0.85707498  0.17711167  0.24527967    -0.15300
C1502       C  0.88795617  0.16670856  0.26475538     0.06800
C1503       C  0.88699792  0.15178395  0.29787005    -0.15300
C1504       C  0.85552433  0.14346963  0.30933299    -0.15300
C1505       C  0.82504705  0.14829074  0.28670967     0.06800
C1506       C  0.82559980  0.16871331  0.25669003    -0.15300
H1507       H  0.85728350  0.18919765  0.21990276     0.10800
H1508       H  0.91058258  0.14419974  0.31365885     0.10800
H1509       H  0.85580146  0.12871319  0.33328581     0.10800
H1510       H  0.80232921  0.17367202  0.23925774     0.10800
C1511       C  0.65781478  0.33127012  0.26690268    -0.15300
C1512       C  0.62755183  0.33848060  0.24483984     0.06800
C1513       C  0.62978337  0.35177861  0.21119421    -0.15300
C1514       C  0.66125138  0.36282788  0.20200223    -0.15300
C1515       C  0.69002661  0.36194723  0.22715345     0.06800
C1516       C  0.68926591  0.34208525  0.25756956    -0.15300
H1517       H  0.65682554  0.31996046  0.29259092     0.10800
H1518       H  0.60684002  0.35625254  0.19319536     0.10800
H1519       H  0.66153726  0.37683508  0.17765780     0.10800
H1520       H  0.71152593  0.33982310  0.27685586     0.10800
C1521       C  0.73333892  0.42832779  0.04828812    -0.15300
C1522       C  0.76616733  0.41379985  0.04655834     0.06800
C1523       C  0.79447471  0.42638045  0.06728668    -0.15300
C1524       C  0.78981985  0.45162253  0.09080141    -0.15300
C1525       C  0.75663040  0.46412987  0.09466015     0.06800
C1526       C  0.72855988  0.45293601  0.07251003    -0.15300
H1527       H  0.71105431  0.41899537  0.03286575     0.10800
H1528       H  0.82008223  0.41558023  0.06646900     0.10800
H1529       H  0.81174439  0.45941953  0.10787620     0.10800
H1530       H  0.70261881  0.46205497  0.07520869     0.10800
C1531       C  0.71271930  0.06370357  0.42222453    -0.15300
C1532       C  0.74592947  0.05052834  0.41973269     0.06800
C1533       C  0.77369115  0.06160786  0.44225549    -0.15300
C1534       C  0.76874165  0.08708177  0.46527489    -0.15300
C1535       C  0.73612447  0.10247718  0.46530385     0.06800
C1536       C  0.70792817  0.08981771  0.44456559    -0.15300
H1537       H  0.69107288  0.05585228  0.40480542     0.10800
H1538       H  0.79960620  0.05186557  0.44057150     0.10800
H1539       H  0.79084664  0.09644980  0.48092077     0.10800
H1540       H  0.68247785  0.10129506  0.44427703     0.10800
C1541       C  0.71535535  0.24259238  0.32152960    -0.15300
C1542       C  0.72227580  0.21741086  0.34730519     0.06800
C1543       C  0.70682243  0.18669040  0.34220394    -0.15300
C1544       C  0.67681115  0.18531177  0.31940129    -0.15300
C1545       C  0.66368012  0.21449897  0.30186032     0.06800
C1546       C  0.68492546  0.24161668  0.29942746    -0.15300
H1547       H  0.72834978  0.26595035  0.32366177     0.10800
H1548       H  0.71308453  0.16630954  0.36084639     0.10800
H1549       H  0.66106002  0.16367830  0.32056018     0.10800
H1550       H  0.67563127  0.26367868  0.28451900     0.10800
C1551       C  0.82794851  0.26625558  0.20611495    -0.15300
C1552       C  0.85041543  0.29253870  0.20494586     0.06800
C1553       C  0.83828783  0.32316824  0.18990913    -0.16900
C1554       C  0.80725397  0.32467213  0.16850458    -0.15300
C1555       C  0.78951567  0.29533778  0.16219160     0.06800
C1556       C  0.79644911  0.26817816  0.18562037    -0.15300
H1557       H  0.83645378  0.24309092  0.21921572     0.10800
H1558       H  0.85504571  0.34414716  0.18979439     0.10800
H1559       H  0.80126318  0.34643758  0.15169858     0.10800
H1560       H  0.78187556  0.24577259  0.18261387     0.10800
C1561       C  0.89167553  0.10130227  0.54225383    -0.15300
C1562       C  0.87810189  0.08931613  0.51005104     0.06800
C1563       C  0.86662280  0.11207685  0.48274196    -0.15300
C1564       C  0.86729483  0.14598086  0.48784957    -0.15300
C1565       C  0.87798819  0.15788820  0.52080116     0.06800
C1566       C  0.89134523  0.13543449  0.54764046    -0.15300
H1567       H  0.90195702  0.08440042  0.06332522     0.10800
H1568       H  0.85679988  0.10361002  0.45726648     0.10800
H1569       H  0.85561255  0.16267566  0.46721361     0.10800
H1570       H  0.89856796  0.14414591  0.57366358     0.10800
C1571       C  0.61900705  0.40486015  0.01411241    -0.15300
C1572       C  0.61227505  0.42801064  0.98597480     0.06800
C1573       C  0.60903174  0.41652768  0.95184170    -0.15300
C1574       C  0.61439404  0.38269963  0.94619889    -0.15300
C1575       C  0.62198944  0.35994073  0.97456083     0.06800
C1576       C  0.62293547  0.37122655  0.00848556    -0.15300
H1577       H  0.62164308  0.41273309  0.04088303     0.10800
H1578       H  0.60319968  0.43359933  0.42973618     0.10800
H1579       H  0.61512675  0.37458739  0.91969144     0.10800
H1580       H  0.63046089  0.35455914  0.03063294     0.10800
C1581       C  0.55810393  0.46789950  0.34285298    -0.15300
C1582       C  0.54020733  0.49835003  0.34210084     0.06800
C1583       C  0.54662788  0.02356299  0.31818424    -0.15300
C1584       C  0.57413848  0.01985369  0.29820552    -0.15300
C1585       C  0.59538153  0.99132905  0.30314498     0.06800
C1586       C  0.58611790  0.46450457  0.32362324    -0.15300
H1587       H  0.55341958  0.44852476  0.36168516     0.10800
H1588       H  0.53310074  0.04735791  0.31800646     0.10800
H1589       H  0.58116687  0.04060723  0.28223708     0.10800
H1590       H  0.60225164  0.44217258  0.32707238     0.10800
C1591       C  0.94418263  0.98713550  0.17940342    -0.15300
C1592       C  0.94860826  0.01387984  0.15661295     0.06800
C1593       C  0.93628328  0.04560977  0.16304874    -0.15300
C1594       C  0.91508492  0.54967150  0.18946229    -0.15300
C1595       C  0.90666996  0.52198227  0.20921573     0.06800
C1596       C  0.92345220  0.49133908  0.20632085    -0.15300
H1597       H  0.95399044  0.96257049  0.17435950     0.10800
H1598       H  0.93983523  0.06629159  0.14537184     0.10800
H1599       H  0.90203279  0.57343207  0.19168797     0.10800
H1600       H  0.91678722  0.46984684  0.22141710     0.10800
C1601       C  0.02313072  0.33685930  0.05178159    -0.15300
C1602       C  0.04403387  0.36429021  0.05694274     0.06800
C1603       C  0.57124897  0.36312600  0.08391026    -0.15300
C1604       C  0.57157226  0.33921096  0.11049339    -0.15300
C1605       C  0.54600913  0.31563718  0.10875316     0.06800
C1606       C  0.02444718  0.31210883  0.07772068    -0.15300
H1607       H  0.00257084  0.33693001  0.03061093     0.10800
H1608       H  0.58855534  0.38353612  0.08775274     0.10800
H1609       H  0.58892265  0.34153606  0.13403755     0.10800
H1610       H  0.00489750  0.29348532  0.07591434     0.10800
C1611       C  0.91866922  0.15674799  0.41539583    -0.15300
C1612       C  0.44172815  0.15338870  0.44589914     0.06800
C1613       C  0.46471084  0.17878803  0.45411168    -0.15300
C1614       C  0.47271662  0.20019441  0.42742454    -0.15300
C1615       C  0.95666029  0.19635294  0.39354605     0.06800
C1616       C  0.92715984  0.17754894  0.38840370    -0.15300
H1617       H  0.89900827  0.13869995  0.40950939     0.10800
H1618       H  0.48146098  0.17769361  0.47839554     0.10800
H1619       H  0.49476985  0.21584508  0.43203135     0.10800
H1620       H  0.91314501  0.17633573  0.36280786     0.10800
C1621       C  0.91220069  0.34849854  0.85527438     0.84500
C1622       C  0.92947559  0.37173443  0.88240870    -0.55700
C1623       C  0.90762847  0.38774900  0.90252491     0.07400
C1624       C  0.86905884  0.37885106  0.89346656     0.18400
C1625       C  0.89123947  0.32468237  0.87732868    -0.56500
C1626       C  0.86862868  0.33987280  0.89791927     0.07500
C1627       C  0.88430199  0.37144651  0.83410528    -0.56000
C1628       C  0.86166846  0.38794187  0.85333429     0.08100
H1629       H  0.95689739  0.37646725  0.88431764     0.12600
H1630       H  0.85131892  0.39205307  0.90955440    -0.01700
H1631       H  0.89432169  0.29792138  0.87672897     0.12900
H1632       H  0.88371941  0.37568360  0.80609307     0.12700
C1633       C  0.59490440  0.11917918  0.59618626     0.84500
C1634       C  0.61502328  0.14589872  0.57820622    -0.55700
C1635       C  0.63600690  0.16508791  0.59987544     0.07400
C1636       C  0.63365510  0.15447809  0.64041126     0.18400
C1637       C  0.62240772  0.09876346  0.61993989    -0.56500
C1638       C  0.64290268  0.11572660  0.64396913     0.07500
C1639       C  0.57453619  0.13817170  0.62167518    -0.56000
C1640       C  0.59338297  0.15664588  0.64562991     0.08100
H1641       H  0.61322226  0.14892084  0.54997748     0.12600
H1642       H  0.64976925  0.16941104  0.65916699    -0.01700
H1643       H  0.62440515  0.07194380  0.61869347     0.12900
H1644       H  0.54670606  0.13654475  0.62110728     0.12700
N1645       N  0.52381266  0.52438508  0.92419346    -0.08100
N1646       N  0.54509484  0.52187853  0.89998801    -0.60200
N1647       N  0.95995162  0.06849262  0.94960899    -0.07800
N1648       N  0.93658466  0.09275221  0.94509462    -0.62400
N1649       N  0.48984712  0.07993502  0.96250076    -0.07400
N1650       N  0.48705809  0.11203015  0.96715511    -0.60200
N1651       N  0.49382305  0.51219798  0.91298186    -0.07100
N1652       N  0.49395556  0.50120239  0.88110141    -0.62700
C1653       C  0.52601632  0.50766307  0.87356584     0.94100
C1654       C  0.45354672  0.11967119  0.95653390     0.93800
N1655       N  0.90902908  0.00786566  0.00453527    -0.08300
N1656       N  0.89504505  0.02969586  0.52443257    -0.60800
N1657       N  0.94017391  0.46226989  0.93911345    -0.06400
N1658       N  0.92930125  0.44522610  0.91144051    -0.62100
N1659       N  0.93797342  0.44484359  0.96808217    -0.08300
N1660       N  0.92551867  0.41521162  0.96044046    -0.61100
N1661       N  0.90651483  0.01961647  0.97222114    -0.06100
N1662       N  0.88853424  0.04748160  0.96907344    -0.62200
Mn1663     Mn  0.95007114  0.01537919  0.94236110     1.18400
C1664       C  0.88212807  0.05425190  0.00160651     0.96100
C1665       C  0.92017522  0.41580556  0.92489278     0.96800
N1666       N  0.54829822  0.07116751  0.52822309    -0.08400
N1667       N  0.56577428  0.09833673  0.53663053    -0.64700
N1668       N  0.57717053  0.49616474  0.52271979    -0.07200
N1669       N  0.59574968  0.46870674  0.52628969    -0.65300
N1670       N  0.57550381  0.50817871  0.99058114    -0.07900
N1671       N  0.59117295  0.48707348  0.97103646    -0.64900
N1672       N  0.54444959  0.05377646  0.55679989    -0.06800
N1673       N  0.55865552  0.06850899  0.58474642    -0.65600
Mn1674     Mn  0.53528719  0.04710973  0.97549709     1.10700
C1675       C  0.57185100  0.09657383  0.57228320     0.97400
C1676       C  0.60402732  0.46260886  0.49419103     0.97400
N1677       N  0.99426820  0.43613787  0.53442401    -0.07900
N1678       N  0.99717807  0.40361184  0.53263876    -0.63200
N1679       N  0.99027037  0.00478923  0.58204236    -0.07200
N1680       N  0.99123509  0.01480124  0.61429287    -0.60000
N1681       N  0.96022335  0.99234796  0.57155785    -0.08500
N1682       N  0.93993213  0.99364213  0.59683304    -0.62800
N1683       N  0.02404299  0.44837226  0.54633686    -0.07500
N1684       N  0.54757397  0.42456566  0.55269066    -0.60000
Mn1685     Mn  0.94925007  0.46916622  0.52034717     1.20200
Mn1686     Mn  0.53376031  0.50114299  0.55268756     1.10100
Cl1687     Cl  0.99203696  0.00823175  0.99765975    -0.88000
C1688       C  0.03081862  0.39687542  0.54378474     0.94400
C1689       C  0.95978446  0.00766869  0.62292257     0.94200
N1690       N  0.81139076  0.20922173  0.03958296    -0.08100
N1691       N  0.82790601  0.18057594  0.04285154    -0.60200
N1692       N  0.79288410  0.27849895  0.57459050    -0.07800
N1693       N  0.79761490  0.29983566  0.59980663    -0.62400
N1694       N  0.77364189  0.25427844  0.58464723    -0.07400
N1695       N  0.76550667  0.25858302  0.61656890    -0.60200
N1696       N  0.83044256  0.23201916  0.02634665    -0.07100
N1697       N  0.86024591  0.21834985  0.01942860    -0.62700
C1698       C  0.85821640  0.18635390  0.03083097     0.94100
C1699       C  0.78028433  0.28729536  0.62571234     0.93800
N1700       N  0.76184752  0.34234504  0.49434348    -0.08300
N1701       N  0.74975117  0.37263001  0.49951407    -0.60800
N1702       N  0.82574499  0.29526815  0.96550585    -0.06400
N1703       N  0.85488678  0.30646982  0.95411053    -0.62100
N1704       N  0.79986039  0.30261120  0.94161260    -0.08300
N1705       N  0.81083164  0.31838457  0.91416018    -0.61100
N1706       N  0.78775075  0.33445095  0.51783675    -0.06100
N1707       N  0.79425100  0.35895144  0.53919156    -0.62200
Mn1708     Mn  0.81090479  0.28441248  0.52132341     1.18400
C1709       C  0.77062288  0.38277657  0.52750216     0.96100
C1710       C  0.84545354  0.32045789  0.92143080     0.96800
N1711       N  0.70350195  0.21462233  0.56602452    -0.08400
N1712       N  0.69235170  0.19637111  0.59197975    -0.64700
N1713       N  0.71646737  0.18351899  0.98973544    -0.07200
N1714       N  0.70934033  0.15832489  0.96951177    -0.65300
N1715       N  0.74197515  0.17578784  0.01371292    -0.07900
N1716       N  0.75319330  0.14497653  0.01012028    -0.64900
N1717       N  0.67810878  0.22127858  0.54123804    -0.06800
N1718       N  0.64974747  0.20657518  0.55031955    -0.65600
Mn1719     Mn  0.75823530  0.21371398  0.55174002     1.10700
C1720       C  0.65824664  0.19166592  0.58274909     0.97400
C1721       C  0.73223348  0.13435557  0.98253953     0.97400
N1722       N  0.73083211  0.26352876  0.92257448    -0.07900
N1723       N  0.74096557  0.25811258  0.89156829    -0.63200
N1724       N  0.67299018  0.28621567  0.47935456    -0.07200
N1725       N  0.64200775  0.29971996  0.48245722    -0.60000
N1726       N  0.69267188  0.30890718  0.46686217    -0.08500
N1727       N  0.67575717  0.33712104  0.46052256    -0.62800
N1728       N  0.71195891  0.23905458  0.93270898    -0.07500
N1729       N  0.70950134  0.21646138  0.90858876    -0.60000
Mn1730     Mn  0.74570589  0.30428355  0.95578827     1.20200
Mn1731     Mn  0.69318882  0.23340092  0.98555978     1.10100
Cl1732     Cl  0.75188450  0.25900094  0.50372544    -0.88000
C1733       C  0.72786333  0.22844085  0.88325893     0.94400
C1734       C  0.64436689  0.33135565  0.46975017     0.94200
N1735       N  0.93637931  0.26554049  0.70307179    -0.08100
N1736       N  0.90327245  0.25907078  0.69774739    -0.60200
N1737       N  0.00958878  0.30225318  0.68668523    -0.07800
N1738       N  0.52761563  0.32155029  0.66764130    -0.62400
N1739       N  0.00586615  0.27337659  0.67196472    -0.07400
N1740       N  0.52080659  0.27235969  0.64290732    -0.60200
N1741       N  0.94005343  0.29457127  0.71756248    -0.07100
N1742       N  0.91003593  0.30846182  0.72211205    -0.62700
C1743       C  0.88742919  0.28591327  0.71015113     0.94100
C1744       C  0.53468122  0.30229935  0.64081264     0.93800
N1745       N  0.55629021  0.31283648  0.78594837    -0.08300
N1746       N  0.58987075  0.31611594  0.78712847    -0.60800
N1747       N  0.96847865  0.32059560  0.78965842    -0.06400
N1748       N  0.94031685  0.33710373  0.79753926    -0.62100
N1749       N  0.98436316  0.30588942  0.81790586    -0.08300
N1750       N  0.96718311  0.31230188  0.84541807    -0.61100
N1751       N  0.54068692  0.32723882  0.75747950    -0.06100
N1752       N  0.56348178  0.34041283  0.73857816    -0.62200
Mn1753     Mn  0.98928745  0.31268916  0.73737327     1.18400
C1754       C  0.59395452  0.33331171  0.75749793     0.96100
C1755       C  0.93934021  0.33193252  0.83264730     0.96800
N1756       N  0.52910606  0.20079912  0.68934193    -0.08400
N1757       N  0.54468927  0.19502365  0.66085849    -0.64700
N1758       N  0.97404651  0.17771972  0.74952487    -0.07200
N1759       N  0.95178816  0.16386181  0.76854462    -0.65300
N1760       N  0.95783847  0.19265960  0.72166534    -0.07900
N1761       N  0.92430514  0.18919608  0.72116536    -0.64900
N1762       N  0.54615753  0.18569905  0.71674943    -0.06800
N1763       N  0.57383344  0.16936108  0.70693096    -0.65600
Mn1764     Mn  0.98162030  0.23263049  0.69515222     1.10700
C1765       C  0.57322662  0.17579851  0.67166438     0.97400
C1766       C  0.92094945  0.17116905  0.75049389     0.97400
N1767       N  0.50787012  0.23269473  0.83535653    -0.07900
N1768       N  0.99071367  0.23522064  0.86281452    -0.63200
N1769       N  0.57402765  0.21102792  0.79012708    -0.07200
N1770       N  0.60416626  0.19738570  0.78546540    -0.60000
N1771       N  0.57741283  0.24006585  0.80470287    -0.08500
N1772       N  0.61043574  0.24681441  0.80984098    -0.62800
N1773       N  0.50381325  0.20371369  0.82077160    -0.07500
N1774       N  0.98300349  0.18595305  0.83843790    -0.60000
Mn1775     Mn  0.53213903  0.27326719  0.81248450     1.20200
Mn1776     Mn  0.52511365  0.19282020  0.76984816     1.10100
Cl1777     Cl  0.00702945  0.25280123  0.75377739    -0.88000
C1778       C  0.97500611  0.20625830  0.86418806     0.94400
C1779       C  0.62651808  0.22018188  0.79732772     0.94200
N1780       N  0.79087128  0.44297012  0.81611763    -0.08100
N1781       N  0.80179979  0.41367903  0.83069559    -0.60200
N1782       N  0.77528060  0.01856752  0.84405938    -0.07800
N1783       N  0.77955669  0.03815255  0.87076941    -0.62400
N1784       N  0.74812110  0.00036607  0.84584995    -0.07400
N1785       N  0.73274553  0.00763008  0.87397393    -0.60200
N1786       N  0.81714988  0.46233028  0.81357081    -0.07100
N1787       N  0.84637422  0.44641010  0.82633946    -0.62700
C1788       C  0.83674258  0.41573867  0.83694526     0.94100
C1789       C  0.75312549  0.03103967  0.88940793     0.93800
N1790       N  0.77886191  0.08187155  0.75682429    -0.08300
N1791       N  0.78257857  0.11414362  0.75466522    -0.60800
N1792       N  0.83381114  0.51697772  0.75430952    -0.06400
N1793       N  0.86735898  0.51174083  0.75463739    -0.62100
N1794       N  0.82040558  0.52975756  0.72380441    -0.08300
N1795       N  0.84472496  0.53361938  0.70300413    -0.61100
N1796       N  0.79305637  0.07001705  0.78743875    -0.06100
N1797       N  0.80614959  0.09426714  0.80623245    -0.62200
Mn1798     Mn  0.80554309  0.01684530  0.79982256     1.18400
C1799       C  0.79986051  0.12177501  0.78555283     0.96100
C1800       C  0.87349064  0.52246209  0.72256137     0.96800
N1801       N  0.68304188  0.98443105  0.79203068    -0.08400
N1802       N  0.65811004  0.98048669  0.81224523    -0.64700
N1803       N  0.71208433  0.44383492  0.72881019    -0.07200
N1804       N  0.70240470  0.41877488  0.70929430    -0.65300
N1805       N  0.72622679  0.43263658  0.75960821    -0.07900
N1806       N  0.72631473  0.40009157  0.76128595    -0.64900
N1807       N  0.67024838  0.99710379  0.76127559    -0.06800
N1808       N  0.63668511  0.00227562  0.76019199    -0.65600
Mn1809     Mn  0.73654509  0.46455542  0.80386100     1.10700
C1810       C  0.62968862  0.99173520  0.79201941     0.97400
C1811       C  0.71118594  0.39149039  0.72981326     0.97400
N1812       N  0.75561525  0.51378677  0.66962100    -0.07900
N1813       N  0.77044367  0.50687129  0.64100285    -0.63200
N1814       N  0.68681172  0.05112496  0.70104313    -0.07200
N1815       N  0.65816825  0.06464264  0.68402909    -0.60000
N1816       N  0.71248180  0.07139711  0.69902090    -0.08500
N1817       N  0.70127974  0.09902797  0.68072335    -0.62800
N1818       N  0.72884804  0.49513326  0.67176827    -0.07500
N1819       N  0.72421400  0.47575167  0.64489873    -0.60000
Mn1820     Mn  0.76718631  0.04989234  0.71205472     1.20200
Mn1821     Mn  0.69883174  0.49686661  0.71592270     1.10100
Cl1822     Cl  0.75197973  0.00720054  0.75795695    -0.88000
C1823       C  0.75010373  0.48325380  0.62570466     0.94400
C1824       C  0.66675068  0.09514175  0.67188828     0.94200
C1825       C  0.85706447  0.17712681  0.74530877    -0.15300
C1826       C  0.88794663  0.16672192  0.76478172     0.06800
C1827       C  0.88699035  0.15179389  0.79789500    -0.15300
C1828       C  0.85551768  0.14347592  0.80935758    -0.15300
C1829       C  0.82504016  0.14829628  0.78673446     0.06800
C1830       C  0.82559032  0.16872446  0.75671868    -0.15300
H1831       H  0.85727150  0.18921628  0.71993348     0.10800
H1832       H  0.91057581  0.14420869  0.81368185     0.10800
H1833       H  0.85579644  0.12871583  0.83330817     0.10800
H1834       H  0.80231906  0.17368318  0.73928730     0.10800
C1835       C  0.65782494  0.33126491  0.76691215    -0.15300
C1836       C  0.62756520  0.33847347  0.74484361     0.06800
C1837       C  0.62980229  0.35177114  0.71119892    -0.15300
C1838       C  0.66127178  0.36282263  0.70201346    -0.15300
C1839       C  0.69004258  0.36194418  0.72717006     0.06800
C1840       C  0.68927746  0.34208269  0.75758577    -0.15300
H1841       H  0.65683164  0.31995480  0.79259954     0.10800
H1842       H  0.60686169  0.35624310  0.69319558     0.10800
H1843       H  0.66156146  0.37682945  0.67766935     0.10800
H1844       H  0.71153420  0.33982243  0.77687628     0.10800
C1845       C  0.73336564  0.42831939  0.54829994    -0.15300
C1846       C  0.76619319  0.41379221  0.54656347     0.06800
C1847       C  0.79450290  0.42636979  0.56729119    -0.15300
C1848       C  0.78985128  0.45160843  0.59081101    -0.15300
C1849       C  0.75666285  0.46411530  0.59467535     0.06800
C1850       C  0.72858997  0.45292403  0.57252656    -0.15300
H1851       H  0.71107932  0.41898916  0.53287854     0.10800
H1852       H  0.82010990  0.41556995  0.56646866     0.10800
H1853       H  0.81177768  0.45940346  0.60788444     0.10800
H1854       H  0.70264962  0.46204263  0.57522926     0.10800
C1855       C  0.71270803  0.06370780  0.92223824    -0.15300
C1856       C  0.74591873  0.05053373  0.91974720     0.06800
C1857       C  0.77367946  0.06161335  0.94227126    -0.15300
C1858       C  0.76872864  0.08708680  0.96529080    -0.15300
C1859       C  0.73611079  0.10248099  0.96531913     0.06800
C1860       C  0.70791542  0.08982107  0.94457985    -0.15300
H1861       H  0.69106240  0.05585643  0.90481813     0.10800
H1862       H  0.79959489  0.05187184  0.94058788     0.10800
H1863       H  0.79083322  0.09645561  0.98093687     0.10800
H1864       H  0.68246471  0.10129773  0.94429067     0.10800
C1865       C  0.71536165  0.24258162  0.82154057    -0.15300
C1866       C  0.72227752  0.21740153  0.84731850     0.06800
C1867       C  0.70682313  0.18668157  0.84221731    -0.15300
C1868       C  0.67681450  0.18530300  0.81941084    -0.15300
C1869       C  0.66368677  0.21448986  0.80186672     0.06800
C1870       C  0.68493379  0.24160647  0.79943524    -0.15300
H1871       H  0.72835725  0.26593895  0.82367285     0.10800
H1872       H  0.71308181  0.16630166  0.86086171     0.10800
H1873       H  0.66106211  0.16367030  0.82056875     0.10800
H1874       H  0.67564217  0.26366839  0.78452497     0.10800
C1875       C  0.82793153  0.26627025  0.70612196    -0.15300
C1876       C  0.85040120  0.29255162  0.70495752     0.06800
C1877       C  0.83828184  0.32317825  0.68990714    -0.16900
C1878       C  0.80725866  0.32467821  0.66848536    -0.15300
C1879       C  0.78952160  0.29534333  0.66217183     0.06800
C1880       C  0.79644202  0.26818914  0.68561005    -0.15300
H1881       H  0.83643002  0.24310792  0.71923174     0.10800
H1882       H  0.85504173  0.34415581  0.68979494     0.10800
H1883       H  0.80127744  0.34643962  0.65167104     0.10800
H1884       H  0.78186874  0.24578350  0.68260178     0.10800
C1885       C  0.89166512  0.10130431  0.04229470    -0.15300
C1886       C  0.87811153  0.08931897  0.01008459     0.06800
C1887       C  0.86664030  0.11208071  0.98277357    -0.15300
C1888       C  0.86730178  0.14598444  0.98788505    -0.15300
C1889       C  0.87797613  0.15789033  0.02084175     0.06800
C1890       C  0.89132339  0.13543607  0.04768484    -0.15300
H1891       H  0.90197530  0.08439870  0.56328147     0.10800
H1892       H  0.85683099  0.10361507  0.95729341     0.10800
H1893       H  0.85562627  0.16267918  0.96724570     0.10800
H1894       H  0.89853041  0.14414616  0.07371156     0.10800
C1895       C  0.61901760  0.40484941  0.51411654    -0.15300
C1896       C  0.61228588  0.42799921  0.48597828     0.06800
C1897       C  0.60903854  0.41651542  0.45184567    -0.15300
C1898       C  0.61439847  0.38268714  0.44620362    -0.15300
C1899       C  0.62199606  0.35992927  0.47456597     0.06800
C1900       C  0.62294345  0.37121558  0.50849054    -0.15300
H1901       H  0.62165634  0.41272314  0.54088685     0.10800
H1902       H  0.60319320  0.43361198  0.92973251     0.10800
H1903       H  0.61512955  0.37457411  0.41969624     0.10800
H1904       H  0.63046994  0.35454859  0.53063805     0.10800
C1905       C  0.55808105  0.46793924  0.84281112    -0.15300
C1906       C  0.54020819  0.49840104  0.84208047     0.06800
C1907       C  0.54665349  0.02362531  0.81818686    -0.15300
C1908       C  0.57416445  0.01991081  0.79820980    -0.15300
C1909       C  0.59538410  0.99136951  0.80312937     0.06800
C1910       C  0.58609673  0.46453891  0.82358450    -0.15300
H1911       H  0.55337778  0.44855562  0.86162603     0.10800
H1912       H  0.53314478  0.04742841  0.81802607     0.10800
H1913       H  0.58121225  0.04066931  0.78225964     0.10800
H1914       H  0.60221346  0.44219515  0.82701857     0.10800
C1915       C  0.94409881  0.98702926  0.67934161    -0.15300
C1916       C  0.94858752  0.01380547  0.65661389     0.06800
C1917       C  0.93634941  0.04554626  0.66313251    -0.15300
C1918       C  0.91516927  0.54960139  0.68956364    -0.15300
C1919       C  0.90669278  0.52189567  0.70925604     0.06800
C1920       C  0.92339286  0.49122542  0.70627954    -0.15300
H1921       H  0.95384125  0.96245595  0.67423551     0.10800
H1922       H  0.93995078  0.06625292  0.64550475     0.10800
H1923       H  0.90217617  0.57338159  0.69184923     0.10800
H1924       H  0.91667720  0.46972069  0.72132649     0.10800
C1925       C  0.02310920  0.33686441  0.55178552    -0.15300
C1926       C  0.04401368  0.36429500  0.55694312     0.06800
C1927       C  0.57127201  0.36311816  0.58390848    -0.15300
C1928       C  0.57159735  0.33919970  0.61048833    -0.15300
C1929       C  0.54603473  0.31562548  0.60874582     0.06800
C1930       C  0.02442234  0.31211805  0.57772877    -0.15300
H1931       H  0.00255096  0.33693272  0.53061347     0.10800
H1932       H  0.58857733  0.38352872  0.58775368     0.10800
H1933       H  0.58894783  0.34152311  0.63403283     0.10800
H1934       H  0.00487216  0.29349499  0.57592386     0.10800
C1935       C  0.91868550  0.15674627  0.91542395    -0.15300
C1936       C  0.44170691  0.15339280  0.94587545     0.06800
C1937       C  0.46468774  0.17879325  0.95408959    -0.15300
C1938       C  0.47269799  0.20019720  0.92740233    -0.15300
C1939       C  0.95667439  0.19635161  0.89357086     0.06800
C1940       C  0.92717334  0.17754805  0.88843130    -0.15300
H1941       H  0.89902346  0.13869896  0.90953904     0.10800
H1942       H  0.48143397  0.17770109  0.97837601     0.10800
H1943       H  0.49475046  0.21584848  0.93201154     0.10800
H1944       H  0.91315537  0.17633616  0.86283682     0.10800
C1945       C  0.91220539  0.84849674  0.35524952     0.84500
C1946       C  0.92947892  0.87173449  0.38238278    -0.55700
C1947       C  0.90763045  0.88774996  0.40249687     0.07400
C1948       C  0.86906135  0.87885095  0.39343797     0.18400
C1949       C  0.89124402  0.82468156  0.37730471    -0.56500
C1950       C  0.86863215  0.83987281  0.39789343     0.07500
C1951       C  0.88430695  0.87144350  0.33407799    -0.56000
C1952       C  0.86167239  0.88793997  0.35330513     0.08100
H1953       H  0.95690076  0.87646725  0.38429299     0.12600
H1954       H  0.85132063  0.89205360  0.40952444    -0.01700
H1955       H  0.89432762  0.79792053  0.37670761     0.12900
H1956       H  0.88372528  0.87567890  0.30606561     0.12700
C1957       C  0.59487431  0.61918544  0.09618437     0.84500
C1958       C  0.61499492  0.64590467  0.07820542    -0.55700
C1959       C  0.63597867  0.66509302  0.09987553     0.07400
C1960       C  0.63362590  0.65448252  0.14041071     0.18400
C1961       C  0.62237630  0.59876851  0.11993847    -0.56500
C1962       C  0.64287134  0.61573094  0.14396823     0.07500
C1963       C  0.57450638  0.63817879  0.12167339    -0.56000
C1964       C  0.59335420  0.65665182  0.14562881     0.08100
H1965       H  0.61319453  0.64892752  0.04997677     0.12600
H1966       H  0.64974050  0.66941445  0.15916708    -0.01700
H1967       H  0.62437300  0.57194885  0.11869177     0.12900
H1968       H  0.54667619  0.63655289  0.12110545     0.12700
N1969       N  0.52381778  0.02437157  0.42420587    -0.08100
N1970       N  0.54509928  0.02185065  0.40000138    -0.60200
N1971       N  0.95993866  0.56849624  0.44958780    -0.07800
N1972       N  0.93657085  0.59275490  0.44506887    -0.62400
N1973       N  0.48986831  0.57992683  0.46250937    -0.07400
N1974       N  0.48708299  0.61202180  0.46716629    -0.60200
N1975       N  0.49382503  0.01218804  0.41299918    -0.07100
N1976       N  0.49395438  0.00118143  0.38112280    -0.62700
C1977       C  0.52601703  0.00763071  0.37358482     0.94100
C1978       C  0.45357064  0.61966551  0.45655267     0.93800
N1979       N  0.90901159  0.50786214  0.50450179    -0.08300
N1980       N  0.89506389  0.52969897  0.02446134    -0.60800
N1981       N  0.94017013  0.96227145  0.43908949    -0.06400
N1982       N  0.92930183  0.94522754  0.41141514    -0.62100
N1983       N  0.93796634  0.94484441  0.46805712    -0.08300
N1984       N  0.92551390  0.91521211  0.46041342    -0.61100
N1985       N  0.90650058  0.51961320  0.47218783    -0.06100
N1986       N  0.88851955  0.54747804  0.46903851    -0.62200
Mn1987     Mn  0.95006352  0.51538163  0.44233624     1.18400
C1988       C  0.88211101  0.55424851  0.50157080     0.96100
C1989       C  0.92017556  0.91580625  0.42486566     0.96800
N1990       N  0.54827410  0.57117478  0.02821604    -0.08400
N1991       N  0.56574907  0.59834392  0.03662627    -0.64700
N1992       N  0.57714852  0.99617472  0.02271623    -0.07200
N1993       N  0.59572830  0.96871701  0.02628624    -0.65300
N1994       N  0.57551917  0.00817036  0.49058552    -0.07900
N1995       N  0.59118545  0.98706451  0.47103938    -0.64900
N1996       N  0.54442161  0.55378325  0.05679149    -0.06800
N1997       N  0.55862424  0.56851555  0.08473990    -0.65600
Mn1998     Mn  0.53530594  0.54709769  0.47550156     1.10700
C1999       C  0.57182132  0.59658087  0.07227921     0.97400
C2000       C  0.60401184  0.96262238  0.99418885     0.97400
N2001       N  0.99428603  0.93613616  0.03444386    -0.07900
N2002       N  0.99719458  0.90361037  0.03265401    -0.63200
N2003       N  0.99030355  0.50478682  0.08205895    -0.07200
N2004       N  0.99127027  0.51481338  0.11430420    -0.60000
N2005       N  0.96025173  0.49235395  0.07157755    -0.08500
N2006       N  0.93995747  0.49367161  0.09684865    -0.62800
N2007       N  0.02406371  0.94836868  0.04635053    -0.07500
N2008       N  0.54755257  0.92457188  0.05268499    -0.60000
Mn2009     Mn  0.94926729  0.96916732  0.02037494     1.20200
Mn2010     Mn  0.53373325  0.00114997  0.05267842     1.10100
Cl2011     Cl  0.99202060  0.50823551  0.49764097    -0.88000
C2012       C  0.03083701  0.89687255  0.04379090     0.94400
C2013       C  0.95981506  0.50769935  0.12293356     0.94200
N2014       N  0.81141033  0.70921861  0.53956198    -0.08100
N2015       N  0.82792504  0.68057257  0.54282559    -0.60200
N2016       N  0.79285981  0.77850477  0.07460713    -0.07800
N2017       N  0.79759537  0.79983880  0.09982511    -0.62400
N2018       N  0.77361618  0.75428519  0.08466331    -0.07400
N2019       N  0.76548504  0.75858770  0.11658686    -0.60200
N2020       N  0.83046000  0.73201640  0.52632318    -0.07100
N2021       N  0.86026090  0.71834716  0.51939801    -0.62700
C2022       C  0.85823260  0.68635078  0.53079899     0.94100
C2023       C  0.78026670  0.78729792  0.12573199     0.93800
N2024       N  0.76183235  0.84234632  0.99434908    -0.08300
N2025       N  0.74973437  0.87263192  0.99951362    -0.60800
N2026       N  0.82575619  0.79526786  0.46548565    -0.06400
N2027       N  0.85489658  0.80646809  0.45408591    -0.62100
N2028       N  0.79986860  0.80261400  0.44159680    -0.08300
N2029       N  0.81083632  0.81838827  0.41414305    -0.61100
N2030       N  0.78773135  0.83445416  0.01784799    -0.06100
N2031       N  0.79422722  0.85895705  0.03920083    -0.62200
Mn2032     Mn  0.81088609  0.78441526  0.02134247     1.18400
C2033       C  0.77060069  0.88278124  0.02750397     0.96100
C2034       C  0.84545916  0.82045878  0.42140813     0.96800
N2035       N  0.70347598  0.71463031  0.06603290    -0.08400
N2036       N  0.69232334  0.69637835  0.09198622    -0.64700
N2037       N  0.71648315  0.68351662  0.48972381    -0.07200
N2038       N  0.70935411  0.65832300  0.46949984    -0.65300
N2039       N  0.74199299  0.67578478  0.51369873    -0.07900
N2040       N  0.75321067  0.64497371  0.51010400    -0.64900
N2041       N  0.67808515  0.72128599  0.04124363    -0.06800
N2042       N  0.64972321  0.70658106  0.05032147    -0.65600
Mn2043     Mn  0.75821145  0.71372002  0.05175529     1.10700
C2044       C  0.65821940  0.69167160  0.08275140     0.97400
C2045       C  0.73224843  0.63435339  0.48252475     0.97400
N2046       N  0.73083811  0.76353310  0.42256537    -0.07900
N2047       N  0.74096642  0.75811971  0.39155642    -0.63200
N2048       N  0.67297547  0.78622288  0.97935499    -0.07200
N2049       N  0.64199445  0.79973177  0.98245548    -0.60000
N2050       N  0.69266020  0.80891087  0.96686114    -0.08500
N2051       N  0.67574917  0.83712630  0.96051826    -0.62800
N2052       N  0.71196746  0.73905741  0.43270105    -0.07500
N2053       N  0.70950648  0.71646610  0.40857909    -0.60000
Mn2054     Mn  0.74571693  0.80428547  0.45578138     1.20200
Mn2055     Mn  0.69320457  0.73339908  0.48555393     1.10100
Cl2056     Cl  0.75186692  0.75900427  0.00373793    -0.88000
C2057       C  0.72786373  0.72844815  0.38324683     0.94400
C2058       C  0.64435777  0.83136622  0.96974552     0.94200
N2059       N  0.93639406  0.76553188  0.20305170    -0.08100
N2060       N  0.90328727  0.75906132  0.19772807    -0.60200
N2061       N  0.00960662  0.80224316  0.18667192    -0.07800
N2062       N  0.52759356  0.82156171  0.16765121    -0.62400
N2063       N  0.00588461  0.77336662  0.17195129    -0.07400
N2064       N  0.52078181  0.77237185  0.14291611    -0.60200
N2065       N  0.94006772  0.79456308  0.21754175    -0.07100
N2066       N  0.91005005  0.80845305  0.22209152    -0.62700
C2067       C  0.88744371  0.78590403  0.21013110     0.94100
C2068       C  0.53465543  0.80231194  0.14082041     0.93800
N2069       N  0.55628387  0.81284320  0.28595570    -0.08300
N2070       N  0.58986422  0.81612206  0.28713017    -0.60800
N2071       N  0.96848747  0.82058871  0.28963935    -0.06400
N2072       N  0.94032559  0.83709854  0.29751736    -0.62100
N2073       N  0.98436935  0.80588287  0.31788827    -0.08300
N2074       N  0.96718748  0.81229735  0.34539871    -0.61100
N2075       N  0.54067661  0.82724677  0.25748941    -0.06100
N2076       N  0.56346832  0.84042106  0.23858440    -0.62200
Mn2077     Mn  0.98930100  0.81268030  0.23735688     1.18400
C2078       C  0.59394353  0.83331886  0.25749899     0.96100
C2079       C  0.93934618  0.83192885  0.33262523     0.96800
N2080       N  0.52908534  0.70080775  0.18934919    -0.08400
N2081       N  0.54466367  0.69503071  0.16086311    -0.64700
N2082       N  0.97405662  0.67771036  0.24950750    -0.07200
N2083       N  0.95179629  0.66385128  0.26852396    -0.65300
N2084       N  0.95785126  0.69265022  0.22164663    -0.07900
N2085       N  0.92431772  0.68918549  0.22114240    -0.64900
N2086       N  0.54613936  0.68570694  0.21675483    -0.06800
N2087       N  0.57381240  0.66936725  0.20693258    -0.65600
Mn2088     Mn  0.98163614  0.73262122  0.19513655     1.10700
C2089       C  0.57320072  0.67580400  0.17166554     0.97400
C2090       C  0.92095910  0.67115764  0.25046978     0.97400
N2091       N  0.50787062  0.73270001  0.33537055    -0.07900
N2092       N  0.99071003  0.73521653  0.36279490    -0.63200
N2093       N  0.57402027  0.71103430  0.29013013    -0.07200
N2094       N  0.60415785  0.69739219  0.28546411    -0.60000
N2095       N  0.57740754  0.74007187  0.30470632    -0.08500
N2096       N  0.61043065  0.74682036  0.30984028    -0.62800
N2097       N  0.50381169  0.70371949  0.32078509    -0.07500
N2098       N  0.98299980  0.68594864  0.33841911    -0.60000
Mn2099     Mn  0.53213596  0.77327315  0.31249505     1.20200
Mn2100     Mn  0.52510347  0.69282779  0.26985720     1.10100
Cl2101     Cl  0.00704010  0.75279226  0.25376340    -0.88000
C2102       C  0.97499934  0.70625585  0.36416656     0.94400
C2103       C  0.62651102  0.72018821  0.29732412     0.94200
N2104       N  0.79087178  0.94296575  0.31609101    -0.08100
N2105       N  0.80180250  0.91367525  0.33066881    -0.60200
N2106       N  0.77528471  0.51856449  0.34404013    -0.07800
N2107       N  0.77956330  0.53814957  0.37074998    -0.62400
N2108       N  0.74812638  0.50036209  0.34583418    -0.07400
N2109       N  0.73275429  0.50762540  0.37396052    -0.60200
N2110       N  0.81714920  0.96232669  0.31354034    -0.07100
N2111       N  0.84637499  0.94640721  0.32630650    -0.62700
C2112       C  0.83674542  0.91573543  0.33691412     0.94100
C2113       C  0.75313510  0.53103557  0.38939226     0.93800
N2114       N  0.77884349  0.58187889  0.25681004    -0.08300
N2115       N  0.78256549  0.61415032  0.25465080    -0.60800
N2116       N  0.83379618  0.01698666  0.25427751    -0.06400
N2117       N  0.86734703  0.01177320  0.25459942    -0.62100
N2118       N  0.82037989  0.02976989  0.22377765    -0.08300
N2119       N  0.84469359  0.03365658  0.20297588    -0.61100
N2120       N  0.79304629  0.57002143  0.28742020    -0.06100
N2121       N  0.80614970  0.59426902  0.30621087    -0.62200
Mn2122     Mn  0.80553743  0.51684851  0.29979534     1.18400
C2123       C  0.79985906  0.62177824  0.28553371     0.96100
C2124       C  0.87346826  0.02251130  0.22252539     0.96800
N2125       N  0.68303818  0.48442492  0.29202697    -0.08400
N2126       N  0.65811163  0.48046716  0.31224523    -0.64700
N2127       N  0.71206894  0.94383560  0.22879678    -0.07200
N2128       N  0.70238600  0.91877758  0.20927945    -0.65300
N2129       N  0.72621799  0.93263418  0.25959118    -0.07900
N2130       N  0.72630663  0.90008899  0.26126501    -0.64900
N2131       N  0.67023578  0.49709940  0.26127550    -0.06800
N2132       N  0.63667108  0.50225853  0.26019849    -0.65600
Mn2133     Mn  0.73654365  0.96454888  0.30384676     1.10700
C2134       C  0.62968343  0.49170887  0.29202599     0.97400
C2135       C  0.71117149  0.89149098  0.22979372     0.97400
N2136       N  0.75558234  0.01379847  0.16960735    -0.07900
N2137       N  0.77040813  0.00688628  0.14098692    -0.63200
N2138       N  0.68678364  0.55113057  0.20104153    -0.07200
N2139       N  0.65813906  0.56464673  0.18402791    -0.60000
N2140       N  0.71245210  0.57140452  0.19901838    -0.08500
N2141       N  0.70124802  0.59903480  0.18072128    -0.62800
N2142       N  0.72881725  0.99514267  0.17175647    -0.07500
N2143       N  0.72418186  0.97576262  0.14488571    -0.60000
Mn2144     Mn  0.76715807  0.54990310  0.21203927     1.20200
Mn2145     Mn  0.69881015  0.99686786  0.21591822     1.10100
Cl2146     Cl  0.75196536  0.50720498  0.25794009    -0.88000
C2147       C  0.75006855  0.98326861  0.12568895     0.94400
C2148       C  0.66671950  0.59514659  0.17188707     0.94200
C2149       C  0.85707379  0.67711368  0.24527781    -0.15300
C2150       C  0.88795459  0.66671107  0.26475454     0.06800
C2151       C  0.88699558  0.65178790  0.29786977    -0.15300
C2152       C  0.85552160  0.64347408  0.30933221    -0.15300
C2153       C  0.82504486  0.64829418  0.28670783     0.06800
C2154       C  0.82559827  0.66871594  0.25668771    -0.15300
H2155       H  0.85728287  0.68919861  0.21990041     0.10800
H2156       H  0.91057997  0.64420415  0.31365929     0.10800
H2157       H  0.85579813  0.62871841  0.33328551     0.10800
H2158       H  0.80232807  0.67367404  0.23925465     0.10800
C2159       C  0.65781485  0.83126707  0.26689977    -0.15300
C2160       C  0.62755163  0.83847952  0.24483793     0.06800
C2161       C  0.62978289  0.85177911  0.21119293    -0.15300
C2162       C  0.66125112  0.86282776  0.20200087    -0.15300
C2163       C  0.69002673  0.86194548  0.22715174     0.06800
C2164       C  0.68926612  0.84208195  0.25756670    -0.15300
H2165       H  0.65682578  0.81995615  0.29258743     0.10800
H2166       H  0.60683933  0.85625469  0.19319478     0.10800
H2167       H  0.66153696  0.87683603  0.17765711     0.10800
H2168       H  0.71152643  0.83981848  0.27685255     0.10800
C2169       C  0.73333827  0.92832549  0.04829094    -0.15300
C2170       C  0.76616733  0.91379987  0.04655880     0.06800
C2171       C  0.79447502  0.92638258  0.06728489    -0.15300
C2172       C  0.78981998  0.95162448  0.09079985    -0.15300
C2173       C  0.75663010  0.96412923  0.09466122     0.06800
C2174       C  0.72855915  0.95293340  0.07251310    -0.15300
H2175       H  0.71105347  0.91899139  0.03287032     0.10800
H2176       H  0.82008306  0.91558415  0.06646526     0.10800
H2177       H  0.81174495  0.95942326  0.10787288     0.10800
H2178       H  0.70261779  0.96205044  0.07521363     0.10800
C2179       C  0.71271980  0.56370449  0.42222484    -0.15300
C2180       C  0.74593029  0.55053070  0.41973158     0.06800
C2181       C  0.77369225  0.56161158  0.44225313    -0.15300
C2182       C  0.76874254  0.58708532  0.46527267    -0.15300
C2183       C  0.73612477  0.60247914  0.46530315     0.06800
C2184       C  0.70792839  0.58981845  0.44456609    -0.15300
H2185       H  0.69107310  0.55585219  0.40480671     0.10800
H2186       H  0.79960754  0.55187049  0.44056805     0.10800
H2187       H  0.79084765  0.59645438  0.48091750     0.10800
H2188       H  0.68247768  0.60129467  0.44427874     0.10800
C2189       C  0.71535388  0.74259104  0.32152942    -0.15300
C2190       C  0.72227313  0.71741045  0.34730619     0.06800
C2191       C  0.70681982  0.68668983  0.34220569    -0.15300
C2192       C  0.67680990  0.68531023  0.31940126    -0.15300
C2193       C  0.66367987  0.71449667  0.30185810     0.06800
C2194       C  0.68492548  0.74161415  0.29942516    -0.15300
H2195       H  0.72834805  0.76594913  0.32366137     0.10800
H2196       H  0.71308085  0.66630976  0.36084934     0.10800
H2197       H  0.66105850  0.66367692  0.32056044     0.10800
H2198       H  0.67563208  0.76367552  0.28451513     0.10800
C2199       C  0.82794745  0.76625594  0.20611530    -0.15300
C2200       C  0.85041469  0.79253882  0.20494650     0.06800
C2201       C  0.83828753  0.82316846  0.18990963    -0.16900
C2202       C  0.80725385  0.82467266  0.16850482    -0.15300
C2203       C  0.78951513  0.79533856  0.16219180     0.06800
C2204       C  0.79644818  0.76817884  0.18562055    -0.15300
H2205       H  0.83645237  0.74309118  0.21921614     0.10800
H2206       H  0.85504565  0.84414720  0.18979504     0.10800
H2207       H  0.80126345  0.84643815  0.15169874     0.10800
H2208       H  0.78187434  0.74577344  0.18261395     0.10800
C2209       C  0.89167283  0.60130121  0.54225275    -0.15300
C2210       C  0.87810178  0.58931599  0.51004864     0.06800
C2211       C  0.86662449  0.61207744  0.48273963    -0.15300
C2212       C  0.86729560  0.64598127  0.48784855    -0.15300
C2213       C  0.87798663  0.65788757  0.52080115     0.06800
C2214       C  0.89134189  0.63543320  0.54764050    -0.15300
H2215       H  0.90195252  0.58439865  0.06332424     0.10800
H2216       H  0.85680351  0.60361131  0.45726326     0.10800
H2217       H  0.85561461  0.66267661  0.46721246     0.10800
H2218       H  0.89856267  0.64414388  0.57366430     0.10800
C2219       C  0.61900720  0.90486306  0.01411219    -0.15300
C2220       C  0.61227642  0.92801396  0.98597477     0.06800
C2221       C  0.60903535  0.91653158  0.95184145    -0.15300
C2222       C  0.61439812  0.88270362  0.94619842    -0.15300
C2223       C  0.62199163  0.85994424  0.97456030     0.06800
C2224       C  0.62293596  0.87122959  0.00848506    -0.15300
H2225       H  0.62164180  0.91273551  0.04088299     0.10800
H2226       H  0.60320472  0.93360355  0.42973603     0.10800
H2227       H  0.61513239  0.87459176  0.91969102     0.10800
H2228       H  0.63046012  0.85456186  0.03063246     0.10800
C2229       C  0.55810078  0.96790401  0.34285322    -0.15300
C2230       C  0.54020651  0.99835573  0.34210220     0.06800
C2231       C  0.54662533  0.52355654  0.31818066    -0.15300
C2232       C  0.57413552  0.51984839  0.29820121    -0.15300
C2233       C  0.59538120  0.49132559  0.30314197     0.06800
C2234       C  0.58611541  0.96450798  0.32362449    -0.15300
H2235       H  0.55341405  0.94852871  0.36168386     0.10800
H2236       H  0.53309617  0.54735049  0.31800184     0.10800
H2237       H  0.58116171  0.54060187  0.28223139     0.10800
H2238       H  0.60224713  0.94217467  0.32707266     0.10800
C2239       C  0.94417847  0.48713229  0.17939850    -0.15300
C2240       C  0.94860781  0.51387785  0.15661086     0.06800
C2241       C  0.93628602  0.54560830  0.16304922    -0.15300
C2242       C  0.91508279  0.04967305  0.18946231    -0.15300
C2243       C  0.90667097  0.02198432  0.20921836     0.06800
C2244       C  0.92345659  0.99134236  0.20632602    -0.15300
H2245       H  0.95398371  0.46256687  0.17435253     0.10800
H2246       H  0.93984074  0.56629102  0.14537441     0.10800
H2247       H  0.90202835  0.07343275  0.19168618     0.10800
H2248       H  0.91679427  0.96985051  0.22142439     0.10800
C2249       C  0.02313176  0.83685992  0.05178032    -0.15300
C2250       C  0.04403463  0.86429097  0.05694214     0.06800
C2251       C  0.57124850  0.86312705  0.08391070    -0.15300
C2252       C  0.57157072  0.83921235  0.11049400    -0.15300
C2253       C  0.54600771  0.81563846  0.10875294     0.06800
C2254       C  0.02444704  0.81210980  0.07771968    -0.15300
H2255       H  0.00257275  0.83693042  0.03060882     0.10800
H2256       H  0.58855466  0.88353725  0.08775374     0.10800
H2257       H  0.58892016  0.84153773  0.13403872     0.10800
H2258       H  0.00489742  0.79348624  0.07591265     0.10800
C2259       C  0.91867083  0.65674889  0.41539782    -0.15300
C2260       C  0.44173079  0.65338845  0.44590036     0.06800
C2261       C  0.46471447  0.67878703  0.45411262    -0.15300
C2262       C  0.47272055  0.70019299  0.42742524    -0.15300
C2263       C  0.95666306  0.69635216  0.39354704     0.06800
C2264       C  0.92716159  0.67754948  0.38840544    -0.15300
H2265       H  0.89900894  0.63870168  0.40951188     0.10800
H2266       H  0.48146529  0.67769186  0.47839607     0.10800
H2267       H  0.49477453  0.71584281  0.43203151     0.10800
H2268       H  0.91314581  0.67633702  0.36280993     0.10800
C2269       C  0.91220215  0.84849752  0.85527621     0.84500
C2270       C  0.92947668  0.87173371  0.88241058    -0.55700
C2271       C  0.90762926  0.88774812  0.90252671     0.07400
C2272       C  0.86905976  0.87884958  0.89346820     0.18400
C2273       C  0.89124116  0.82468112  0.87733047    -0.56500
C2274       C  0.86863003  0.83987135  0.89792083     0.07500
C2275       C  0.88430317  0.87144513  0.83410704    -0.56000
C2276       C  0.86166933  0.88794015  0.85333595     0.08100
H2277       H  0.95689843  0.87646683  0.88431955     0.12600
H2278       H  0.85131953  0.89205135  0.90955588    -0.01700
H2279       H  0.89432358  0.79792015  0.87673073     0.12900
H2280       H  0.88372053  0.87568222  0.80609483     0.12700
C2281       C  0.59490365  0.61917965  0.59618395     0.84500
C2282       C  0.61502226  0.64589975  0.57820437    -0.55700
C2283       C  0.63600536  0.66508902  0.59987407     0.07400
C2284       C  0.63365340  0.65447878  0.64040961     0.18400
C2285       C  0.62240715  0.59876420  0.61993760    -0.56500
C2286       C  0.64290161  0.61572751  0.64396709     0.07500
C2287       C  0.57453491  0.63817171  0.62167287    -0.56000
C2288       C  0.59338126  0.65664593  0.64562793     0.08100
H2289       H  0.61322147  0.64892219  0.54997568     0.12600
H2290       H  0.64976716  0.66941177  0.65916564    -0.01700
H2291       H  0.62440512  0.57194456  0.61869098     0.12900
H2292       H  0.54670479  0.63654441  0.62110472     0.12700
N2293       N  0.52381071  0.02438793  0.92419539    -0.08100
N2294       N  0.54509267  0.02188342  0.89998954    -0.60200
N2295       N  0.95995408  0.56849214  0.94960599    -0.07800
N2296       N  0.93658730  0.59275196  0.94509276    -0.62400
N2297       N  0.48984983  0.57993401  0.96249762    -0.07400
N2298       N  0.48706111  0.61202895  0.96715314    -0.60200
N2299       N  0.49382159  0.01219984  0.91298378    -0.07100
N2300       N  0.49395435  0.00120538  0.88110286    -0.62700
C2301       C  0.52601462  0.00766813  0.87356701     0.94100
C2302       C  0.45354967  0.61967040  0.95653278     0.93800
N2303       N  0.90902978  0.50786591  0.00453232    -0.08300
N2304       N  0.89504489  0.52969567  0.52442949    -0.60800
N2305       N  0.94017313  0.96226984  0.93911548    -0.06400
N2306       N  0.92930083  0.94522585  0.91144252    -0.62100
N2307       N  0.93797289  0.94484344  0.96808421    -0.08300
N2308       N  0.92551884  0.91521118  0.96044244    -0.61100
N2309       N  0.90651639  0.51961714  0.97221838    -0.06100
N2310       N  0.88853583  0.54748228  0.96907053    -0.62200
Mn2311     Mn  0.95007267  0.51537895  0.94235869     1.18400
C2312       C  0.88212851  0.55425199  0.00160340     0.96100
C2313       C  0.92017543  0.91580502  0.92489470     0.96800
N2314       N  0.54829957  0.57116659  0.52822054    -0.08400
N2315       N  0.56577518  0.59833609  0.53662790    -0.64700
N2316       N  0.57716980  0.99616640  0.52272062    -0.07200
N2317       N  0.59574982  0.96870896  0.52629011    -0.65300
N2318       N  0.57550270  0.00818088  0.99058214    -0.07900
N2319       N  0.59117256  0.98707650  0.97103711    -0.64900
N2320       N  0.54445024  0.55377603  0.55679748    -0.06800
N2321       N  0.55865528  0.56850917  0.58474403    -0.65600
Mn2322     Mn  0.53528910  0.54710800  0.97549484     1.10700
C2323       C  0.57185092  0.59657388  0.57228067     0.97400
C2324       C  0.60402771  0.96261187  0.49419137     0.97400
N2325       N  0.99426829  0.93613827  0.53442522    -0.07900
N2326       N  0.99717839  0.90361234  0.53263922    -0.63200
N2327       N  0.99027017  0.50478964  0.58204013    -0.07200
N2328       N  0.99123462  0.51480127  0.61429077    -0.60000
N2329       N  0.96022334  0.49234813  0.57155536    -0.08500
N2330       N  0.93993203  0.49364162  0.59683047    -0.62800
N2331       N  0.02404317  0.94837278  0.54633753    -0.07500
N2332       N  0.54757448  0.92456630  0.55269028    -0.60000
Mn2333     Mn  0.94924971  0.96916618  0.52034942     1.20200
Mn2334     Mn  0.53376003  0.00114344  0.55268909     1.10100
Cl2335     Cl  0.99203797  0.50823111  0.99765766    -0.88000
C2336       C  0.03081918  0.89687606  0.54378425     0.94400
C2337       C  0.95978402  0.50766820  0.62292021     0.94200
N2338       N  0.81138960  0.70922167  0.03958349    -0.08100
N2339       N  0.82790426  0.68057556  0.04285137    -0.60200
N2340       N  0.79288377  0.77849941  0.57459095    -0.07800
N2341       N  0.79761465  0.79983625  0.59980694    -0.62400
N2342       N  0.77364116  0.75427922  0.58464769    -0.07400
N2343       N  0.76550574  0.75858414  0.61656922    -0.60200
N2344       N  0.83044174  0.73201892  0.02634735    -0.07100
N2345       N  0.86024474  0.71834925  0.01942883    -0.62700
C2346       C  0.85821464  0.68635322  0.03083066     0.94100
C2347       C  0.78028374  0.78729635  0.62571258     0.93800
N2348       N  0.76184862  0.84234530  0.49434376    -0.08300
N2349       N  0.74975201  0.87263014  0.49951443    -0.60800
N2350       N  0.82574537  0.79526722  0.96550670    -0.06400
N2351       N  0.85488741  0.80646846  0.95411162    -0.62100
N2352       N  0.79986103  0.80261030  0.94161317    -0.08300
N2353       N  0.81083269  0.81838334  0.91416080    -0.61100
N2354       N  0.78775172  0.83445124  0.51783715    -0.06100
N2355       N  0.79425172  0.85895171  0.53919210    -0.62200
Mn2356     Mn  0.81090490  0.78441240  0.52132409     1.18400
C2357       C  0.77062352  0.88277675  0.52750258     0.96100
C2358       C  0.84545460  0.82045633  0.92143178     0.96800
N2359       N  0.70350081  0.71462375  0.56602489    -0.08400
N2360       N  0.69235022  0.69637219  0.59197967    -0.64700
N2361       N  0.71646591  0.68352022  0.98973603    -0.07200
N2362       N  0.70933931  0.65832633  0.96951187    -0.65300
N2363       N  0.74197373  0.67578899  0.01371343    -0.07900
N2364       N  0.75319241  0.64497797  0.01012026    -0.64900
N2365       N  0.67810781  0.72128051  0.54123839    -0.06800
N2366       N  0.64974630  0.70657717  0.55031937    -0.65600
Mn2367     Mn  0.75823423  0.71371479  0.55174057     1.10700
C2368       C  0.65824517  0.69166737  0.58274863     0.97400
C2369       C  0.73223281  0.63435714  0.98253932     0.97400
N2370       N  0.73083138  0.76352936  0.92257485    -0.07900
N2371       N  0.74096414  0.75811272  0.89156845    -0.63200
N2372       N  0.67299048  0.78621783  0.47935527    -0.07200
N2373       N  0.64200835  0.79972295  0.48245771    -0.60000
N2374       N  0.69267277  0.80890875  0.46686280    -0.08500
N2375       N  0.67575886  0.83712299  0.46052294    -0.62800
N2376       N  0.71195764  0.73905577  0.93270972    -0.07500
N2377       N  0.70949912  0.71646243  0.90858974    -0.60000
Mn2378     Mn  0.74570649  0.80428386  0.95578861     1.20200
Mn2379     Mn  0.69318797  0.73340263  0.98556042     1.10100
Cl2380     Cl  0.75188423  0.75900164  0.50372600    -0.88000
C2381       C  0.72786100  0.72844121  0.88325959     0.94400
C2382       C  0.64436839  0.83135847  0.46975042     0.94200
N2383       N  0.93637845  0.76554047  0.70307208    -0.08100
N2384       N  0.90327156  0.75907085  0.69774774    -0.60200
N2385       N  0.00958741  0.80225346  0.68668496    -0.07800
N2386       N  0.52761377  0.82155096  0.66764110    -0.62400
N2387       N  0.00586463  0.77337707  0.67196405    -0.07400
N2388       N  0.52080458  0.77236068  0.64290637    -0.60200
N2389       N  0.94005275  0.79457098  0.71756331    -0.07100
N2390       N  0.91003533  0.80846144  0.72211329    -0.62700
C2391       C  0.88742846  0.78591311  0.71015209     0.94100
C2392       C  0.53467900  0.80230047  0.64081201     0.93800
N2393       N  0.55629055  0.81283548  0.78594750    -0.08300
N2394       N  0.58987107  0.81611472  0.78712707    -0.60800
N2395       N  0.96847923  0.82059494  0.78965924    -0.06400
N2396       N  0.94031765  0.83710305  0.79754067    -0.62100
N2397       N  0.98436417  0.80588862  0.81790636    -0.08300
N2398       N  0.96718462  0.81230095  0.84541899    -0.61100
N2399       N  0.54068689  0.82723816  0.75747899    -0.06100
N2400       N  0.56348153  0.84041216  0.73857735    -0.62200
Mn2401     Mn  0.98928706  0.81268880  0.73737351     1.18400
C2402       C  0.59395451  0.83331072  0.75749658     0.96100
C2403       C  0.93934159  0.83193172  0.83264878     0.96800
N2404       N  0.52910453  0.70079896  0.68934047    -0.08400
N2405       N  0.54468748  0.69502351  0.66085687    -0.64700
N2406       N  0.97404532  0.67771980  0.74952409    -0.07200
N2407       N  0.95178662  0.66386276  0.76854410    -0.65300
N2408       N  0.95783755  0.69265959  0.72166434    -0.07900
N2409       N  0.92430418  0.68919666  0.72116434    -0.64900
N2410       N  0.54615602  0.68569859  0.71674779    -0.06800
N2411       N  0.57383175  0.66936056  0.70692908    -0.65600
Mn2412     Mn  0.98161921  0.73263064  0.69515151     1.10700
C2413       C  0.57322473  0.67579815  0.67166252     0.97400
C2414       C  0.92094806  0.67117032  0.75049318     0.97400
N2415       N  0.50787110  0.73269370  0.83535596    -0.07900
N2416       N  0.99071563  0.73521962  0.86281459    -0.63200
N2417       N  0.57402736  0.71102670  0.79012505    -0.07200
N2418       N  0.60416575  0.69738417  0.78546303    -0.60000
N2419       N  0.57741304  0.74006459  0.80470085    -0.08500
N2420       N  0.61043604  0.74681279  0.80983860    -0.62800
N2421       N  0.50381365  0.70371276  0.82077098    -0.07500
N2422       N  0.98300445  0.68595217  0.83843792    -0.60000
Mn2423     Mn  0.53213969  0.77326612  0.81248372     1.20200
Mn2424     Mn  0.52511291  0.69281951  0.76984689     1.10100
Cl2425     Cl  0.00702907  0.75280075  0.75377672    -0.88000
C2426       C  0.97500806  0.70625735  0.86418853     0.94400
C2427       C  0.62651795  0.72018015  0.79732506     0.94200
N2428       N  0.79087134  0.94296742  0.81611924    -0.08100
N2429       N  0.80180020  0.91367649  0.83069738    -0.60200
N2430       N  0.77528061  0.51857037  0.84405756    -0.07800
N2431       N  0.77955702  0.53815525  0.87076769    -0.62400
N2432       N  0.74812118  0.50036889  0.84584835    -0.07400
N2433       N  0.73274602  0.50763265  0.87397266    -0.60200
N2434       N  0.81714982  0.96232775  0.81357222    -0.07100
N2435       N  0.84637430  0.94640786  0.82634078    -0.62700
C2436       C  0.83674301  0.91573646  0.83694682     0.94100
C2437       C  0.75312611  0.53104222  0.88940655     0.93800
N2438       N  0.77886142  0.58187390  0.75682188    -0.08300
N2439       N  0.78257746  0.61414607  0.75466283    -0.60800
N2440       N  0.83381173  0.01697566  0.75431155    -0.06400
N2441       N  0.86735982  0.01174003  0.75463961    -0.62100
N2442       N  0.82040603  0.02975569  0.72380656    -0.08300
N2443       N  0.84472546  0.03361887  0.70300665    -0.61100
N2444       N  0.79305595  0.57001959  0.78743642    -0.06100
N2445       N  0.80614860  0.59426990  0.80623016    -0.62200
Mn2446     Mn  0.80554293  0.51684788  0.79982069     1.18400
C2447       C  0.79985903  0.62177772  0.78555055     0.96100
C2448       C  0.87349142  0.02246222  0.72256383     0.96800
N2449       N  0.68304205  0.48443328  0.79202896    -0.08400
N2450       N  0.65811015  0.48048733  0.81224307    -0.64700
N2451       N  0.71208455  0.94383310  0.72881144    -0.07200
N2452       N  0.70240542  0.91877352  0.70929470    -0.65300
N2453       N  0.72622642  0.93263415  0.75960947    -0.07900
N2454       N  0.72631410  0.90008908  0.76128646    -0.64900
N2455       N  0.67024829  0.49710564  0.76127380    -0.06800
N2456       N  0.63668472  0.50227562  0.76018974    -0.65600
Mn2457     Mn  0.73654493  0.96455271  0.80386260     1.10700
C2458       C  0.62968840  0.49173445  0.79201695     0.97400
C2459       C  0.71118608  0.89148861  0.72981314     0.97400
N2460       N  0.75561566  0.01378514  0.66962296    -0.07900
N2461       N  0.77044394  0.00686994  0.64100465    -0.63200
N2462       N  0.68681123  0.55112656  0.70104117    -0.07200
N2463       N  0.65816758  0.56464399  0.68402728    -0.60000
N2464       N  0.71248117  0.57139883  0.69901867    -0.08500
N2465       N  0.70127885  0.59902954  0.68072102    -0.62800
N2466       N  0.72884841  0.99513166  0.67177012    -0.07500
N2467       N  0.72421426  0.97575031  0.64490042    -0.60000
Mn2468     Mn  0.76718587  0.54989435  0.71205245     1.20200
Mn2469     Mn  0.69883198  0.99686487  0.71592445     1.10100
Cl2470     Cl  0.75197960  0.50720285  0.75795507    -0.88000
C2471       C  0.75010393  0.98325257  0.62570631     0.94400
C2472       C  0.66674978  0.59514306  0.67188624     0.94200
C2473       C  0.85706321  0.67712882  0.74530689    -0.15300
C2474       C  0.88794498  0.66672443  0.76478086     0.06800
C2475       C  0.88698792  0.65179789  0.79789473    -0.15300
C2476       C  0.85551486  0.64348039  0.80935680    -0.15300
C2477       C  0.82503791  0.64829969  0.78673262     0.06800
C2478       C  0.82558872  0.66872706  0.75671634    -0.15300
H2479       H  0.85727080  0.68921723  0.71993111     0.10800
H2480       H  0.91057303  0.64421317  0.81368237     0.10800
H2481       H  0.85579301  0.62872111  0.83330785     0.10800
H2482       H  0.80231790  0.67368512  0.73928416     0.10800
C2483       C  0.65782511  0.83126192  0.76690932    -0.15300
C2484       C  0.62756508  0.83847236  0.74484181     0.06800
C2485       C  0.62980184  0.85177162  0.71119774    -0.15300
C2486       C  0.66127151  0.86282253  0.70201212    -0.15300
C2487       C  0.69004274  0.86194242  0.72716824     0.06800
C2488       C  0.68927778  0.84207935  0.75758283    -0.15300
H2489       H  0.65683208  0.81995059  0.79259619     0.10800
H2490       H  0.60686099  0.85624524  0.69319520     0.10800
H2491       H  0.66156104  0.87683048  0.67766868     0.10800
H2492       H  0.71153489  0.83981768  0.77687275     0.10800
C2493       C  0.73336495  0.92831697  0.54830282    -0.15300
C2494       C  0.76619315  0.91379220  0.54656394     0.06800
C2495       C  0.79450318  0.92637196  0.56728937    -0.15300
C2496       C  0.78985138  0.95161038  0.59080944    -0.15300
C2497       C  0.75666254  0.96411463  0.59467645     0.06800
C2498       C  0.72858921  0.95292134  0.57252966    -0.15300
H2499       H  0.71107838  0.91898500  0.53288323     0.10800
H2500       H  0.82011068  0.91557400  0.56646486     0.10800
H2501       H  0.81177827  0.95940715  0.60788111     0.10800
H2502       H  0.70264860  0.96203804  0.57523421     0.10800
C2503       C  0.71270858  0.56370863  0.92223853    -0.15300
C2504       C  0.74591967  0.55053616  0.91974603     0.06800
C2505       C  0.77368062  0.56161714  0.94226893    -0.15300
C2506       C  0.76872946  0.58709036  0.96528864    -0.15300
C2507       C  0.73611100  0.60248298  0.96531835     0.06800
C2508       C  0.70791560  0.58982179  0.94458019    -0.15300
H2509       H  0.69106269  0.55585609  0.90481947     0.10800
H2510       H  0.79959634  0.55187687  0.94058450     0.10800
H2511       H  0.79083410  0.59646021  0.98093380     0.10800
H2512       H  0.68246446  0.60129725  0.94429211     0.10800
C2513       C  0.71536019  0.74258030  0.82154052    -0.15300
C2514       C  0.72227485  0.71740110  0.84731956     0.06800
C2515       C  0.70682045  0.68668102  0.84221916    -0.15300
C2516       C  0.67681324  0.68530146  0.81941086    -0.15300
C2517       C  0.66368654  0.71448754  0.80186453     0.06800
C2518       C  0.68493384  0.74160396  0.79943301    -0.15300
H2519       H  0.72835556  0.76593777  0.82367261     0.10800
H2520       H  0.71307796  0.66630193  0.86086483     0.10800
H2521       H  0.66106055  0.66366898  0.82056910     0.10800
H2522       H  0.67564301  0.76366519  0.78452116     0.10800
C2523       C  0.82793055  0.76627072  0.70612238    -0.15300
C2524       C  0.85040055  0.79255182  0.70495818     0.06800
C2525       C  0.83828168  0.82317858  0.68990770    -0.16900
C2526       C  0.80725869  0.82467887  0.66848561    -0.15300
C2527       C  0.78952121  0.79534423  0.66217203     0.06800
C2528       C  0.79644122  0.76818994  0.68561021    -0.15300
H2529       H  0.83642863  0.74310833  0.71923229     0.10800
H2530       H  0.85504184  0.84415593  0.68979568     0.10800
H2531       H  0.80127791  0.84644034  0.65167123     0.10800
H2532       H  0.78186770  0.74578447  0.68260181     0.10800
C2533       C  0.89166220  0.60130313  0.04229360    -0.15300
C2534       C  0.87811128  0.58931879  0.01008213     0.06800
C2535       C  0.86664185  0.61208130  0.98277123    -0.15300
C2536       C  0.86730253  0.64598485  0.98788404    -0.15300
C2537       C  0.87797450  0.65788965  0.02084179     0.06800
C2538       C  0.89131986  0.63543464  0.04768493    -0.15300
H2539       H  0.90197107  0.58439714  0.56328052     0.10800
H2540       H  0.85683444  0.60361642  0.95729015     0.10800
H2541       H  0.85562842  0.66268022  0.96724458     0.10800
H2542       H  0.89852493  0.64414394  0.07371237     0.10800
C2543       C  0.61901792  0.90485231  0.51411633    -0.15300
C2544       C  0.61228744  0.92800255  0.48597827     0.06800
C2545       C  0.60904231  0.91651932  0.45184544    -0.15300
C2546       C  0.61440261  0.88269111  0.44620317    -0.15300
C2547       C  0.62199819  0.85993275  0.47456545     0.06800
C2548       C  0.62294397  0.87121859  0.50849004    -0.15300
H2549       H  0.62165520  0.91272552  0.54088682     0.10800
H2550       H  0.60319810  0.93361623  0.92973235     0.10800
H2551       H  0.61513519  0.87457845  0.41969584     0.10800
H2552       H  0.63046910  0.85455124  0.53063757     0.10800
C2553       C  0.55807780  0.96794377  0.84281133    -0.15300
C2554       C  0.54020729  0.99840678  0.84208181     0.06800
C2555       C  0.54665097  0.52361883  0.81818326    -0.15300
C2556       C  0.57416147  0.51990547  0.79820542    -0.15300
C2557       C  0.59538378  0.49136604  0.80312632     0.06800
C2558       C  0.58609417  0.96454233  0.82358575    -0.15300
H2559       H  0.55337214  0.94855959  0.86162470     0.10800
H2560       H  0.53314025  0.54742096  0.81802145     0.10800
H2561       H  0.58120702  0.54066391  0.78225382     0.10800
H2562       H  0.60220889  0.94219726  0.82701887     0.10800
C2563       C  0.94409469  0.48702613  0.67933664    -0.15300
C2564       C  0.94858704  0.51380356  0.65661178     0.06800
C2565       C  0.93635205  0.54554482  0.66313299    -0.15300
C2566       C  0.91516718  0.04960296  0.68956359    -0.15300
C2567       C  0.90669378  0.02189775  0.70925864     0.06800
C2568       C  0.92339720  0.99122870  0.70628475    -0.15300
H2569       H  0.95383453  0.46245242  0.67422841     0.10800
H2570       H  0.93995607  0.56625236  0.64550731     0.10800
H2571       H  0.90217182  0.07338232  0.69184735     0.10800
H2572       H  0.91668423  0.96972439  0.72133395     0.10800
C2573       C  0.02311008  0.83686501  0.55178437    -0.15300
C2574       C  0.04401433  0.86429570  0.55694261     0.06800
C2575       C  0.57127170  0.86311916  0.58390899    -0.15300
C2576       C  0.57159584  0.83920113  0.61048908    -0.15300
C2577       C  0.54603329  0.81562683  0.60874571     0.06800
C2578       C  0.02442209  0.81211900  0.57772790    -0.15300
H2579       H  0.00255266  0.83693310  0.53061153     0.10800
H2580       H  0.58857690  0.88352979  0.58775466     0.10800
H2581       H  0.58894539  0.84152480  0.63403417     0.10800
H2582       H  0.00487200  0.79349584  0.57592241     0.10800
C2583       C  0.91868720  0.65674722  0.91542606    -0.15300
C2584       C  0.44170962  0.65339245  0.94587659     0.06800
C2585       C  0.46469139  0.67879220  0.95409047    -0.15300
C2586       C  0.47270186  0.70019577  0.92740300    -0.15300
C2587       C  0.95667714  0.69635088  0.89357191     0.06800
C2588       C  0.92717501  0.67754873  0.88843317    -0.15300
H2589       H  0.89902423  0.63870071  0.90954165     0.10800
H2590       H  0.48143836  0.67769931  0.97837644     0.10800
H2591       H  0.49475515  0.71584612  0.93201160     0.10800
H2592       H  0.91315604  0.67633759  0.86283910     0.10800
loop_ 
_geom_bond_atom_site_label_1 
_geom_bond_atom_site_label_2 
_geom_bond_distance 
_geom_bond_site_symmetry_2 
_ccdc_geom_bond_type 
C1            C2   1.539       .  S
C1            C7   1.560       .  S
C1            C5   1.566       .  S
C1          C135   1.584       .  S
C2            H9   1.086       .  S
C2            C3   1.370       .  D
C3            C4   1.562       .  S
C3           C45   1.504       .  S
C4            C8   1.575       .  S
C4            C6   1.580       .  S
C4           H10   1.110       .  S
C5           H11   1.085       .  S
C5            C6   1.387       .  D
C6           C90   1.554       .  S
C7           H12   1.086       .  S
C7            C8   1.379       .  D
C8          C168   1.544       .  S
C13          C14   1.541       .  S
C13          C19   1.533       .  S
C13          C17   1.543       .  S
C13          C55   1.552       .  S
C14          H21   1.086       .  S
C14          C15   1.377       .  D
C15          C16   1.620       .  S
C15         C100   1.570       .  S
C16          C20   1.604       .  S
C16          C18   1.596       .  S
C16          H22   1.110       .  S
C17          H23   1.087       .  S
C17          C18   1.370       .  D
C18         C204   1.555       .  S
C19          H24   1.087       .  S
C19          C20   1.370       .  D
C20         C145   1.547       .  S
N25          N26   1.314       .  A
N25          N31   1.317   1_455  A
N25        Mn702   2.210       .  S
N26          C33   1.348       .  A
N27          N28   1.316       .  A
N27        N1325   1.320       .  A
N27         Mn43   2.209       .  S
N28        C1330   1.349       .  A
N29          N30   1.317       .  A
N29        N1323   1.320       .  A
N29         Mn54   2.193   1_655  S
N30          C34   1.354       .  A
N31          N32   1.317       .  A
N31       Mn1987   2.144       .  S
N32          C33   1.342   1_655  A
C33         C286   1.438       .  S
C34        N1324   1.349       .  A
C34         C316   1.461       .  S
N35          N41   1.313       .  A
N35         N360   1.327       .  A
N35       Mn1037   2.214   1_545  S
N36         N359   1.327       .  A
N36         C368   1.360       .  A
N37          N38   1.324       .  A
N37          N39   1.314       .  A
N37        Mn691   2.194       .  S
N38          C45   1.354       .  A
N39          N40   1.332       .  A
N39        Mn389   2.272       .  S
N40          C45   1.363       .  A
N41          N42   1.306       .  A
N41         Mn43   2.152       .  S
N42          C44   1.336       .  A
Mn43       N1975   2.144       .  S
Mn43        N685   2.194   1_545  S
Mn43        Cl67   2.555       .  S
C44         N360   1.360       .  A
C44         C266   1.470       .  S
N46          N47   1.337       .  A
N46          N52   1.313       .  A
N46        Mn378   2.291   1_554  S
N47          C55   1.369       .  A
N48          N49   1.305       .  A
N48         N374   1.312   1_554  A
N48         Mn66   2.152       .  S
N49          C56   1.337   1_554  A
N50          N51   1.330       .  A
N50         N372   1.312       .  A
N50        Mn702   2.215       .  S
N51         C380   1.363       .  A
N52          N53   1.323       .  A
N52        Mn714   2.184       .  S
N53          C55   1.353       .  A
Mn54        N673   2.210       .  S
Mn54        N370   2.291       .  S
Mn54        N698   2.215       .  S
Mn54      Cl1363   2.529   1_455  S
C56         N375   1.363       .  A
C56         C276   1.476       .  S
N57          N58   1.320       .  A
N57          N63   1.318       .  A
N57         Mn65   2.191       .  S
N58          C68   1.356       .  A
N59          N60   1.314       .  A
N59          N61   1.317   1_545  A
N59       Mn2010   2.135       .  S
N60          C69   1.339       .  A
N61          N62   1.317       .  A
N61        Mn713   2.213       .  S
N62          C69   1.351   1_565  A
N63        N1360   1.311       .  A
N63       Mn1362   2.190       .  S
N64        N1359   1.311       .  A
N64        C1364   1.344       .  A
Mn65       N1007   2.214       .  S
Mn65        N363   2.272   1_554  S
Mn65        N709   2.213       .  S
Mn65      Cl1039   2.529   1_554  S
Mn66        N700   2.184       .  S
Mn66       N2003   2.135   1_455  S
Mn66       N1359   2.190       .  S
Mn66      Cl2335   2.542   1_454  S
Cl67      Mn1350   2.529       .  S
Cl67      Mn1037   2.529   1_545  S
Cl67      Mn2334   2.542       .  S
C68        N1360   1.344       .  A
C68         C306   1.459       .  S
C69         C296   1.436       .  S
N70          N71   1.306       .  A
N70          N76   1.322       .  A
N70        Mn423   2.176       .  S
N71          C78   1.336       .  A
N72          N74   1.322       .  A
N72          N73   1.318       .  A
N72         Mn88   2.244       .  S
N73          C79   1.355       .  A
N74          N75   1.315       .  A
N74         Mn99   2.159       .  S
N75          C79   1.348       .  A
N76          N77   1.328       .  A
N76        Mn412   2.227       .  S
N77          C78   1.360       .  A
C78         C269   1.450       .  S
C79         C259   1.461       .  S
N80          N86   1.312   1_556  A
N80          N81   1.327       .  A
N80        Mn434   2.224       .  S
N81          C89   1.362   1_556  A
N82          N83   1.344       .  A
N82          N84   1.317       .  A
N82        Mn412   2.317       .  S
N83          C90   1.377       .  A
N84          N85   1.333       .  A
N84        Mn110   2.234       .  S
N85          C90   1.356       .  A
N86          N87   1.317       .  A
N86         Mn88   2.187       .  S
N87          C89   1.350       .  A
Mn88        N400   2.227       .  S
Mn88        N406   2.317   1_554  S
Mn88       Cl112   2.579       .  S
C89         C226   1.484       .  S
N91          N92   1.340       .  A
N91          N97   1.320       .  A
N91         Mn99   2.257       .  S
N92         C100   1.361       .  A
N93          N95   1.312       .  A
N93          N94   1.316       .  A
N93        Mn111   2.183       .  S
N94         C101   1.350       .  A
N95          N96   1.324       .  A
N95        Mn423   2.208       .  S
N96         C101   1.359       .  A
N97          N98   1.341       .  A
N97        Mn435   2.324   1_554  S
N98         C100   1.377       .  A
Mn99        N394   2.176       .  S
Mn99        N419   2.209       .  S
Mn99       Cl112   2.555       .  S
C101        C239   1.475       .  S
N102        N103   1.317       .  A
N102        N108   1.321       .  A
N102       Mn110   2.167       .  S
N103        C113   1.349       .  A
N104        N105   1.330       .  A
N104        N106   1.322       .  A
N104       Mn435   2.253       .  S
N105        C114   1.364       .  A
N106        N107   1.306       .  A
N106       Mn434   2.158       .  S
N107        C114   1.333       .  A
N108        N109   1.318       .  A
N108       Mn111   2.240       .  S
N109        C113   1.354       .  A
Mn110       N404   2.224       .  S
Mn110       N430   2.158       .  S
Mn110      Cl436   2.553       .  S
Mn111       N421   2.324       .  S
Mn111       N428   2.253       .  S
Mn111      Cl436   2.575       .  S
Cl112      Mn434   2.553   1_554  S
Cl112      Mn435   2.575   1_554  S
C113        C246   1.463       .  S
C114        C279   1.456       .  S
N115        N116   1.320       .  A
N115        N121   1.317       .  A
N115       Mn144   2.232       .  S
N116        C123   1.356       .  A
N117        N119   1.315       .  A
N117       N1414   1.319       .  A
N117       Mn133   2.226       .  S
N118       N1413   1.319       .  A
N118        C124   1.356       .  A
N119       N1416   1.313       .  A
N119       Mn144   2.138       .  S
N120       N1415   1.313       .  A
N120        C124   1.341       .  A
N121        N122   1.315       .  A
N121       Mn133   2.146       .  S
N122        C123   1.342       .  A
C123        C256   1.454       .  S
C124        C309   1.449       .  S
N125        N131   1.312       .  A
N125        N126   1.316       .  A
N125       Mn155   2.161       .  S
N126        C134   1.345       .  A
N127        N128   1.335       .  A
N127        N129   1.315       .  A
N127       Mn133   2.274       .  S
N128        C135   1.367       .  A
N129        N130   1.338       .  A
N129      Mn1451   2.283       .  S
N130        C135   1.369       .  A
N131        N132   1.318       .  A
N131      Mn1429   2.175   1_455  S
N132        C134   1.349       .  A
Mn133      N1427   2.175       .  S
Mn133      Cl157   2.543       .  S
C134        C216   1.462       .  S
N136        N137   1.330       .  A
N136        N142   1.315       .  A
N136      Mn1440   2.259   1_455  S
N137        C145   1.363       .  A
N138        N140   1.312       .  A
N138        N139   1.317       .  A
N138      Mn1452   2.173       .  S
N139        C146   1.348       .  A
N140        N141   1.317       .  A
N140       Mn144   2.166       .  S
N141        C146   1.347       .  A
N142        N143   1.343       .  A
N142       Mn156   2.302       .  S
N143        C145   1.374       .  A
Mn144      N1432   2.259       .  S
Mn144      Cl157   2.536       .  S
C146        C206   1.463       .  S
N147        N153   1.318       .  A
N147       N1444   1.312   1_455  A
N147       Mn155   2.128       .  S
N148       N1443   1.312       .  A
N148        C158   1.337       .  A
N149        N150   1.316       .  A
N149        N151   1.318       .  A
N149       Mn156   2.142       .  S
N150        C159   1.341       .  A
N151        N152   1.319       .  A
N151       Mn155   2.238       .  S
N152        C159   1.355       .  A
N153       N1450   1.323   1_455  A
N153       Mn156   2.256       .  S
N154       N1449   1.323       .  A
N154        C158   1.359       .  A
Mn155      N1425   2.283   1_455  S
Mn155     Cl1453   2.539       .  S
Mn156      N1434   2.173   1_455  S
Mn156     Cl1453   2.547       .  S
Cl157     Mn1451   2.539       .  S
Cl157     Mn1452   2.547       .  S
C158        C319   1.451       .  S
C159        C249   1.453       .  S
N160        N161   1.336       .  A
N160        N166   1.315       .  A
N160       Mn189   2.269       .  S
N161        C168   1.364       .  A
N162        N164   1.311       .  A
N162        N163   1.314       .  A
N162       Mn178   2.171       .  S
N163        C169   1.347       .  A
N164        N165   1.326       .  A
N164       Mn837   2.219   1_545  S
N165        C169   1.361       .  A
N166        N167   1.336       .  A
N166       Mn826   2.274       .  S
N167        C168   1.368       .  A
C169        C236   1.473       .  S
N170        N176   1.322       .  A
N170        N171   1.316       .  A
N170       Mn200   2.200       .  S
N171        C179   1.353       .  A
N172        N173   1.318       .  A
N172        N174   1.322       .  A
N172       Mn826   2.163       .  S
N173        C180   1.344       .  A
N174        N175   1.312       .  A
N174       Mn848   2.207       .  S
N175        C180   1.346       .  A
N176        N177   1.316       .  A
N176       Mn178   2.218       .  S
N177        C179   1.352       .  A
Mn178       N814   2.274   1_545  S
Mn178       N820   2.163       .  S
Mn178      Cl202   2.550       .  S
C179        C209   1.470       .  S
C180        C299   1.440       .  S
N181        N182   1.316       .  A
N181        N187   1.322       .  A
N181       Mn837   2.214       .  S
N182        C190   1.349       .  A
N183        N185   1.319       .  A
N183        N184   1.317       .  A
N183       Mn201   2.221       .  S
N184        C191   1.354       .  A
N185        N186   1.314       .  A
N185       Mn189   2.176       .  S
N186        C191   1.351       .  A
N187        N188   1.316   1_565  A
N187       Mn849   2.166       .  S
N188        C190   1.343   1_545  A
Mn189       N812   2.219       .  S
Mn189       N829   2.214       .  S
Mn189      Cl850   2.561       .  S
C190        C289   1.446       .  S
C191        C219   1.468       .  S
N192        N193   1.329       .  A
N192        N198   1.311       .  A
N192       Mn848   2.239       .  S
N193        C203   1.364       .  A
N194        N195   1.332       .  A
N194        N196   1.316       .  A
N194       Mn849   2.275   1_545  S
N195        C204   1.367       .  A
N196        N197   1.342       .  A
N196       Mn200   2.284       .  S
N197        C204   1.369       .  A
N198        N199   1.315       .  A
N198       Mn201   2.162       .  S
N199        C203   1.346       .  A
Mn200       N822   2.207       .  S
Mn200       N840   2.239       .  S
Mn200      Cl202   2.559       .  S
Mn201       N835   2.166       .  S
Mn201       N842   2.275       .  S
Mn201      Cl850   2.547       .  S
Cl202      Mn837   2.561   1_545  S
Cl202      Mn849   2.547   1_545  S
C203        C229   1.481       .  S
C205        C206   1.401       .  A
C205        C210   1.392       .  A
C205        H211   1.081       .  S
C206        C207   1.400       .  A
C207        C208   1.392       .  A
C207        H212   1.082       .  S
C208        C209   1.406       .  A
C208        H213   1.084       .  S
C209        C210   1.404       .  A
C210        H214   1.083       .  S
C215        C216   1.401       .  A
C215        C220   1.390       .  A
C215        H221   1.083       .  S
C216        C217   1.401       .  A
C217        C218   1.392       .  A
C217        H222   1.083       .  S
C218        C219   1.405       .  A
C218        H223   1.083       .  S
C219        C220   1.405       .  A
C220        H224   1.084       .  S
C225        C226   1.403       .  A
C225        C230   1.403       .  A
C225        H231   1.083       .  S
C226        C227   1.409       .  A
C227        C228   1.402       .  A
C227        H232   1.083       .  S
C228        C229   1.400       .  A
C228        H233   1.083       .  S
C229        C230   1.409       .  A
C230        H234   1.083       .  S
C235        C236   1.400       .  A
C235        C240   1.400       .  A
C235        H241   1.083       .  S
C236        C237   1.407       .  A
C237        C238   1.398       .  A
C237        H242   1.084       .  S
C238        C239   1.401       .  A
C238        H243   1.083       .  S
C239        C240   1.407       .  A
C240        H244   1.083       .  S
C245        C246   1.403       .  A
C245        C250   1.390       .  A
C245        H251   1.083       .  S
C246        C247   1.403       .  A
C247        C248   1.393       .  A
C247        H252   1.084       .  S
C248        C249   1.401       .  A
C248        H253   1.083       .  S
C249        C250   1.397       .  A
C250        H254   1.081       .  S
C255        C256   1.396       .  A
C255        C260   1.390       .  A
C255        H261   1.079       .  S
C256        C257   1.401       .  A
C257        C258   1.392       .  A
C257        H262   1.083       .  S
C258        C259   1.402       .  A
C258        H263   1.083       .  S
C259        C260   1.404       .  A
C260        H264   1.084       .  S
C265        C266   1.402       .  A
C265        C270   1.400       .  A
C265        H595   1.083       .  S
C266        C267   1.408       .  A
C267        C268   1.389       .  A
C267        H272   1.084       .  S
C268        C269   1.397       .  A
C268        H273   1.084       .  S
C269        C270   1.406       .  A
C270        H274   1.084       .  S
H271        C589   1.083       .  S
C275        C276   1.411   1_554  A
C275        C280   1.388       .  A
C275        H281   1.083       .  S
C276        C277   1.401       .  A
C277        C278   1.403       .  A
C277        H606   1.083       .  S
C278        C279   1.411       .  A
C278        H283   1.084       .  S
C279        C280   1.393   1_556  A
C280        H284   1.084       .  S
H282        C601   1.083       .  S
C285        C286   1.396       .  A
C285        C290   1.387       .  A
C285        H291   1.084       .  S
C286        C935   1.399       .  A
C287        C288   1.390       .  A
C287        C934   1.399   1_545  A
C287        H292   1.084       .  S
C288        C289   1.398   1_545  A
C288        H293   1.084       .  S
C289        C938   1.399       .  A
C290        C937   1.399       .  A
C290        H294   1.083       .  S
C295        C296   1.399   1_565  A
C295        C948   1.389       .  A
C295        H301   1.084       .  S
C296        C297   1.394       .  A
C297        C946   1.385       .  A
C297        H302   1.084       .  S
C298        C299   1.400       .  A
C298        C945   1.385       .  A
C298        H303   1.084       .  S
C299        C300   1.397       .  A
C300        C943   1.389       .  A
C300        H304   1.084       .  S
C305        C306   1.399       .  A
C305        C310   1.390       .  A
C305        H311   1.084       .  S
C306       C1603   1.407       .  A
C307        C308   1.387       .  A
C307       C1602   1.407       .  A
C307        H312   1.083       .  S
C308        C309   1.394       .  A
C308        H313   1.082       .  S
C309       C1606   1.402       .  A
C310       C1605   1.402       .  A
C310        H314   1.083       .  S
C315        C320   1.390       .  A
C315       C1612   1.405       .  A
C315        H321   1.083       .  S
C316        C317   1.401       .  A
C316       C1611   1.405       .  A
C317        C318   1.390       .  A
C317        H322   1.084       .  S
C318       C1615   1.402       .  A
C318        H323   1.083       .  S
C319        C320   1.395       .  A
C319       C1614   1.402       .  A
C320        H324   1.080       .  S
C325        C326   1.539       .  S
C325        C331   1.560       .  S
C325        C329   1.566       .  S
C325        C459   1.584       .  S
C326        H333   1.086       .  S
C326        C327   1.370       .  D
C327        C328   1.562       .  S
C327        C369   1.504       .  S
C328        C332   1.575       .  S
C328        C330   1.580       .  S
C328        H334   1.110       .  S
C329        H335   1.085       .  S
C329        C330   1.387       .  D
C330        C414   1.554       .  S
C331        H336   1.086       .  S
C331        C332   1.379       .  D
C332        C492   1.544       .  S
C337        C338   1.541       .  S
C337        C343   1.533       .  S
C337        C341   1.543       .  S
C337        C379   1.552       .  S
C338        H345   1.086       .  S
C338        C339   1.377       .  D
C339        C340   1.620       .  S
C339        C424   1.570       .  S
C340        C344   1.604       .  S
C340        C342   1.596       .  S
C340        H346   1.110       .  S
C341        H347   1.087       .  S
C341        C342   1.370       .  D
C342        C528   1.555       .  S
C343        H348   1.087       .  S
C343        C344   1.370       .  D
C344        C469   1.547       .  S
N349        N350   1.314       .  A
N349        N355   1.317   1_455  A
N349      Mn1026   2.210       .  S
N350        C357   1.348       .  A
N351       N1649   1.320       .  A
N351        N352   1.316       .  A
N351       Mn367   2.209       .  S
N352       C1654   1.349       .  A
N353       N1647   1.320       .  A
N353        N354   1.317       .  A
N353       Mn378   2.193   1_655  S
N354        C358   1.354       .  A
N355        N356   1.317       .  A
N355      Mn2311   2.144       .  S
N356        C357   1.342   1_655  A
C357        C610   1.438       .  S
C358       N1648   1.349       .  A
C358        C640   1.461       .  S
N359        N365   1.313   1_554  A
N359       Mn713   2.214   1_545  S
N361        N362   1.324       .  A
N361        N363   1.314       .  A
N361      Mn1015   2.194       .  S
N362        C369   1.354       .  A
N363        N364   1.332       .  A
N364        C369   1.363       .  A
N365        N366   1.306       .  A
N365       Mn367   2.152       .  S
N366        C368   1.336   1_556  A
Mn367      N2299   2.144       .  S
Mn367      N1009   2.194   1_545  S
Mn367      Cl391   2.555       .  S
C368        C590   1.470       .  S
N370        N371   1.337       .  A
N370        N376   1.313       .  A
N371        C379   1.369       .  A
N372        N373   1.305       .  A
N372       Mn390   2.152       .  S
N373        C380   1.337       .  A
N374        N375   1.330       .  A
N374      Mn1026   2.215       .  S
N376        N377   1.323       .  A
N376      Mn1038   2.184       .  S
N377        C379   1.353       .  A
Mn378       N997   2.210       .  S
Mn378      N1022   2.215       .  S
Mn378     Cl1687   2.529   1_455  S
C380        C600   1.476       .  S
N381        N382   1.320       .  A
N381        N387   1.318       .  A
N381       Mn389   2.191       .  S
N382        C392   1.356       .  A
N383        N384   1.314       .  A
N383        N385   1.317   1_545  A
N383      Mn2334   2.135       .  S
N384        C393   1.339       .  A
N385        N386   1.317       .  A
N385      Mn1037   2.213       .  S
N386        C393   1.351   1_565  A
N387       N1684   1.311       .  A
N387      Mn1686   2.190       .  S
N388       N1683   1.311       .  A
N388       C1688   1.344       .  A
Mn389       N683   2.214       .  S
Mn389      N1033   2.213       .  S
Mn389      Cl715   2.529       .  S
Mn390      N1024   2.184       .  S
Mn390      N2327   2.135   1_455  S
Mn390      N1683   2.190       .  S
Mn390     Cl2011   2.542   1_455  S
Cl391     Mn1674   2.529       .  S
Cl391      Mn713   2.529   1_546  S
Cl391     Mn2010   2.542   1_556  S
C392       N1684   1.344       .  A
C392        C630   1.459       .  S
C393        C620   1.436       .  S
N394        N395   1.306       .  A
N394        N400   1.322       .  A
N395        C402   1.336       .  A
N396        N398   1.322       .  A
N396        N397   1.318       .  A
N396       Mn412   2.244       .  S
N397        C403   1.355       .  A
N398        N399   1.315       .  A
N398       Mn423   2.159       .  S
N399        C403   1.348       .  A
N400        N401   1.328       .  A
N401        C402   1.360       .  A
C402        C593   1.450       .  S
C403        C583   1.461       .  S
N404        N410   1.312       .  A
N404        N405   1.327       .  A
N405        C413   1.362       .  A
N406        N407   1.344       .  A
N406        N408   1.317       .  A
N407        C414   1.377       .  A
N408        N409   1.333       .  A
N408       Mn434   2.234       .  S
N409        C414   1.356       .  A
N410        N411   1.317       .  A
N410       Mn412   2.187       .  S
N411        C413   1.350       .  A
Mn412      Cl436   2.579       .  S
C413        C550   1.484       .  S
N415        N416   1.340       .  A
N415        N421   1.320       .  A
N415       Mn423   2.257       .  S
N416        C424   1.361       .  A
N417        N419   1.312   1_556  A
N417        N418   1.316       .  A
N417       Mn435   2.183       .  S
N418        C425   1.350       .  A
N419        N420   1.324       .  A
N420        C425   1.359   1_554  A
N421        N422   1.341       .  A
N422        C424   1.377       .  A
Mn423      Cl436   2.554       .  S
C425        C563   1.475       .  S
N426        N427   1.317       .  A
N426        N432   1.321       .  A
N426       Mn434   2.167       .  S
N427        C437   1.349       .  A
N428        N429   1.330       .  A
N428        N430   1.322       .  A
N429        C438   1.364       .  A
N430        N431   1.306       .  A
N431        C438   1.333       .  A
N432        N433   1.318       .  A
N432       Mn435   2.240       .  S
N433        C437   1.354       .  A
C437        C570   1.463       .  S
C438        C603   1.456       .  S
N439        N440   1.320       .  A
N439        N445   1.317       .  A
N439       Mn468   2.232       .  S
N440        C447   1.356       .  A
N441        N443   1.315       .  A
N441       N1738   1.319       .  A
N441       Mn457   2.226       .  S
N442       N1737   1.319       .  A
N442        C448   1.356       .  A
N443       N1740   1.313       .  A
N443       Mn468   2.138       .  S
N444       N1739   1.313       .  A
N444        C448   1.341       .  A
N445        N446   1.315       .  A
N445       Mn457   2.147       .  S
N446        C447   1.342       .  A
C447        C580   1.454       .  S
C448        C633   1.449       .  S
N449        N455   1.312       .  A
N449        N450   1.316       .  A
N449       Mn479   2.161       .  S
N450        C458   1.345       .  A
N451        N452   1.335       .  A
N451        N453   1.315       .  A
N451       Mn457   2.274       .  S
N452        C459   1.367       .  A
N453        N454   1.338       .  A
N453      Mn1775   2.283       .  S
N454        C459   1.369       .  A
N455        N456   1.318       .  A
N455      Mn1753   2.175   1_455  S
N456        C458   1.349       .  A
Mn457      N1751   2.175       .  S
Mn457      Cl481   2.543       .  S
C458        C540   1.462       .  S
N460        N461   1.330       .  A
N460        N466   1.315       .  A
N460      Mn1764   2.259   1_455  S
N461        C469   1.363       .  A
N462        N464   1.312       .  A
N462        N463   1.317       .  A
N462      Mn1776   2.173       .  S
N463        C470   1.348       .  A
N464        N465   1.317       .  A
N464       Mn468   2.166       .  S
N465        C470   1.347       .  A
N466        N467   1.343       .  A
N466       Mn480   2.302       .  S
N467        C469   1.374       .  A
Mn468      N1756   2.259       .  S
Mn468      Cl481   2.536       .  S
C470        C530   1.463       .  S
N471       N1768   1.312   1_455  A
N471        N477   1.318       .  A
N471       Mn479   2.128       .  S
N472       N1767   1.312       .  A
N472        C482   1.337       .  A
N473        N474   1.316       .  A
N473        N475   1.318       .  A
N473       Mn480   2.142       .  S
N474        C483   1.341       .  A
N475        N476   1.319       .  A
N475       Mn479   2.238       .  S
N476        C483   1.355       .  A
N477       N1774   1.323   1_455  A
N477       Mn480   2.256       .  S
N478       N1773   1.323       .  A
N478        C482   1.359       .  A
Mn479      N1749   2.283   1_455  S
Mn479     Cl1777   2.539       .  S
Mn480      N1758   2.173   1_455  S
Mn480     Cl1777   2.547       .  S
Cl481     Mn1775   2.539       .  S
Cl481     Mn1776   2.547       .  S
C482        C643   1.451       .  S
C483        C573   1.453       .  S
N484        N485   1.336       .  A
N484        N490   1.315       .  A
N484       Mn513   2.269       .  S
N485        C492   1.364       .  A
N486        N488   1.311       .  A
N486        N487   1.314       .  A
N486       Mn502   2.171       .  S
N487        C493   1.347       .  A
N488        N489   1.326       .  A
N488      Mn1161   2.219   1_545  S
N489        C493   1.361       .  A
N490        N491   1.336       .  A
N490      Mn1150   2.274       .  S
N491        C492   1.368       .  A
C493        C560   1.473       .  S
N494        N500   1.322       .  A
N494        N495   1.316       .  A
N494       Mn524   2.200       .  S
N495        C503   1.353       .  A
N496        N497   1.318       .  A
N496        N498   1.322       .  A
N496      Mn1150   2.163       .  S
N497        C504   1.344       .  A
N498        N499   1.312       .  A
N498      Mn1172   2.207       .  S
N499        C504   1.346       .  A
N500        N501   1.316       .  A
N500       Mn502   2.218       .  S
N501        C503   1.352       .  A
Mn502      N1138   2.274   1_545  S
Mn502      N1144   2.163       .  S
Mn502      Cl526   2.550       .  S
C503        C533   1.470       .  S
C504        C623   1.440       .  S
N505        N506   1.316       .  A
N505        N511   1.322       .  A
N505      Mn1161   2.214       .  S
N506        C514   1.349       .  A
N507        N509   1.319       .  A
N507        N508   1.317       .  A
N507       Mn525   2.221       .  S
N508        C515   1.354       .  A
N509        N510   1.314       .  A
N509       Mn513   2.176       .  S
N510        C515   1.351       .  A
N511        N512   1.316   1_565  A
N511      Mn1173   2.166       .  S
N512        C514   1.343   1_545  A
Mn513      N1136   2.219       .  S
Mn513      N1153   2.214       .  S
Mn513     Cl1174   2.561       .  S
C514        C613   1.446       .  S
C515        C543   1.468       .  S
N516        N517   1.329       .  A
N516        N522   1.311       .  A
N516      Mn1172   2.239       .  S
N517        C527   1.364       .  A
N518        N519   1.332       .  A
N518        N520   1.316       .  A
N518      Mn1173   2.275   1_545  S
N519        C528   1.367       .  A
N520        N521   1.342       .  A
N520       Mn524   2.284       .  S
N521        C528   1.369       .  A
N522        N523   1.315       .  A
N522       Mn525   2.162       .  S
N523        C527   1.346       .  A
Mn524      N1146   2.207       .  S
Mn524      N1164   2.239       .  S
Mn524      Cl526   2.559       .  S
Mn525      N1159   2.166       .  S
Mn525      N1166   2.275       .  S
Mn525     Cl1174   2.547       .  S
Cl526     Mn1161   2.561   1_545  S
Cl526     Mn1173   2.547   1_545  S
C527        C553   1.481       .  S
C529        C530   1.401       .  A
C529        C534   1.392       .  A
C529        H535   1.081       .  S
C530        C531   1.400       .  A
C531        C532   1.392       .  A
C531        H536   1.082       .  S
C532        C533   1.406       .  A
C532        H537   1.084       .  S
C533        C534   1.404       .  A
C534        H538   1.083       .  S
C539        C540   1.401       .  A
C539        C544   1.390       .  A
C539        H545   1.083       .  S
C540        C541   1.401       .  A
C541        C542   1.392       .  A
C541        H546   1.083       .  S
C542        C543   1.405       .  A
C542        H547   1.083       .  S
C543        C544   1.405       .  A
C544        H548   1.084       .  S
C549        C550   1.403       .  A
C549        C554   1.403       .  A
C549        H555   1.083       .  S
C550        C551   1.409       .  A
C551        C552   1.402       .  A
C551        H556   1.083       .  S
C552        C553   1.400       .  A
C552        H557   1.083       .  S
C553        C554   1.409       .  A
C554        H558   1.083       .  S
C559        C560   1.400       .  A
C559        C564   1.400       .  A
C559        H565   1.083       .  S
C560        C561   1.407       .  A
C561        C562   1.398       .  A
C561        H566   1.084       .  S
C562        C563   1.401       .  A
C562        H567   1.083       .  S
C563        C564   1.407       .  A
C564        H568   1.083       .  S
C569        C570   1.403       .  A
C569        C574   1.390       .  A
C569        H575   1.083       .  S
C570        C571   1.403       .  A
C571        C572   1.393       .  A
C571        H576   1.084       .  S
C572        C573   1.401       .  A
C572        H577   1.083       .  S
C573        C574   1.397       .  A
C574        H578   1.081       .  S
C579        C580   1.396       .  A
C579        C584   1.390       .  A
C579        H585   1.079       .  S
C580        C581   1.401       .  A
C581        C582   1.392       .  A
C581        H586   1.083       .  S
C582        C583   1.402       .  A
C582        H587   1.083       .  S
C583        C584   1.404       .  A
C584        H588   1.084       .  S
C589        C590   1.402       .  A
C589        C594   1.399       .  A
C590        C591   1.408   1_554  A
C591        C592   1.389       .  A
C591        H596   1.084       .  S
C592        C593   1.397   1_556  A
C592        H597   1.084       .  S
C593        C594   1.406       .  A
C594        H598   1.084       .  S
C599        C600   1.411       .  A
C599        C604   1.388       .  A
C599        H605   1.083       .  S
C600        C601   1.401       .  A
C601        C602   1.403       .  A
C602        C603   1.411       .  A
C602        H607   1.083       .  S
C603        C604   1.393       .  A
C604        H608   1.084       .  S
C609        C610   1.396       .  A
C609        C614   1.387       .  A
C609        H615   1.084       .  S
C610       C1259   1.399       .  A
C611       C1258   1.399   1_545  A
C611        C612   1.390       .  A
C611        H616   1.084       .  S
C612        C613   1.398   1_545  A
C612        H617   1.084       .  S
C613       C1262   1.399       .  A
C614       C1261   1.399       .  A
C614        H618   1.083       .  S
C619        C620   1.399   1_565  A
C619       C1272   1.389       .  A
C619        H625   1.084       .  S
C620        C621   1.394       .  A
C621       C1270   1.385       .  A
C621        H626   1.084       .  S
C622       C1269   1.385       .  A
C622        C623   1.400       .  A
C622        H627   1.084       .  S
C623        C624   1.397       .  A
C624       C1267   1.389       .  A
C624        H628   1.084       .  S
C629        C630   1.399       .  A
C629        C634   1.390       .  A
C629        H635   1.084       .  S
C630       C1927   1.407       .  A
C631       C1926   1.407       .  A
C631        C632   1.387       .  A
C631        H636   1.083       .  S
C632        C633   1.394       .  A
C632        H637   1.082       .  S
C633       C1930   1.402       .  A
C634       C1929   1.402       .  A
C634        H638   1.083       .  S
C639       C1936   1.405       .  A
C639        C644   1.390       .  A
C639        H645   1.083       .  S
C640       C1935   1.405       .  A
C640        C641   1.401       .  A
C641        C642   1.390       .  A
C641        H646   1.084       .  S
C642       C1939   1.402       .  A
C642        H647   1.083       .  S
C643       C1938   1.402       .  A
C643        C644   1.395       .  A
C644        H648   1.080       .  S
C649        C650   1.539       .  S
C649        C655   1.560       .  S
C649        C653   1.566       .  S
C649        C783   1.584       .  S
C650        H657   1.086       .  S
C650        C651   1.370       .  D
C651        C652   1.562       .  S
C651        C693   1.504       .  S
C652        C656   1.575       .  S
C652        C654   1.580       .  S
C652        H658   1.110       .  S
C653        H659   1.085       .  S
C653        C654   1.387       .  D
C654        C738   1.554       .  S
C655        H660   1.086       .  S
C655        C656   1.379       .  D
C656        C816   1.544       .  S
C661        C662   1.541       .  S
C661        C667   1.533       .  S
C661        C665   1.543       .  S
C661        C703   1.552       .  S
C662        H669   1.086       .  S
C662        C663   1.377       .  D
C663        C664   1.620       .  S
C663        C748   1.570       .  S
C664        C668   1.604       .  S
C664        C666   1.596       .  S
C664        H670   1.110       .  S
C665        H671   1.087       .  S
C665        C666   1.370       .  D
C666        C852   1.555       .  S
C667        H672   1.087       .  S
C667        C668   1.370       .  D
C668        C793   1.547       .  S
N673        N674   1.314       .  A
N673        N679   1.317   1_455  A
N674        C681   1.348       .  A
N675       N1973   1.320       .  A
N675        N676   1.316       .  A
N675       Mn691   2.209       .  S
N676       C1978   1.349       .  A
N677       N1971   1.320       .  A
N677        N678   1.317       .  A
N677       Mn702   2.193   1_655  S
N678        C682   1.354       .  A
N679        N680   1.317       .  A
N679      Mn1339   2.144       .  S
N680        C681   1.342   1_655  A
C681        C934   1.438   1_545  S
C682       N1972   1.349       .  A
C682        C964   1.461       .  S
N683        N689   1.313       .  A
N683       N1008   1.327       .  A
N684       N1007   1.327       .  A
N684       C1016   1.360       .  A
N685        N686   1.324       .  A
N685        N687   1.314       .  A
N686        C693   1.354       .  A
N687        N688   1.332       .  A
N687      Mn1037   2.272       .  S
N688        C693   1.363       .  A
N689        N690   1.306       .  A
N689       Mn691   2.152       .  S
N690        C692   1.336       .  A
Mn691      N1327   2.144       .  S
Mn691      Cl715   2.555       .  S
C692       N1008   1.360       .  A
C692        C914   1.470       .  S
N694        N695   1.337       .  A
N694        N700   1.313       .  A
N694      Mn1026   2.291   1_554  S
N695        C703   1.369       .  A
N696       N1022   1.312   1_564  A
N696        N697   1.305       .  A
N696       Mn714   2.152   1_565  S
N697        C704   1.337   1_554  A
N698       N1020   1.312   1_545  A
N698        N699   1.330   1_545  A
N699       C1028   1.363       .  A
N700        N701   1.323       .  A
N701        C703   1.353       .  A
Mn702      N1018   2.291       .  S
Mn702     Cl2011   2.529   1_455  S
C704       N1023   1.363       .  A
C704        C924   1.476       .  S
N705        N706   1.320       .  A
N705        N711   1.318       .  A
N705       Mn713   2.191       .  S
N706        C716   1.356       .  A
N707        N708   1.314       .  A
N707        N709   1.317       .  A
N707      Mn1362   2.135       .  S
N708        C717   1.339       .  A
N709        N710   1.317       .  A
N710        C717   1.351       .  A
N711       N2008   1.311       .  A
N711      Mn2010   2.190   1_565  S
N712       N2007   1.311       .  A
N712       C2012   1.344       .  A
Mn713      N1011   2.272   1_554  S
Mn714      N1355   2.135   1_455  S
Mn714      N2007   2.190   1_545  S
Mn714     Cl1687   2.542   1_454  S
Cl715     Mn1998   2.529       .  S
Cl715     Mn1686   2.542       .  S
C716       N2008   1.344       .  A
C716        C954   1.459       .  S
C717        C944   1.436       .  S
N718        N719   1.306       .  A
N718        N724   1.322       .  A
N718      Mn1071   2.176       .  S
N719        C726   1.336       .  A
N720        N722   1.322       .  A
N720        N721   1.318       .  A
N720       Mn736   2.244       .  S
N721        C727   1.355       .  A
N722        N723   1.315       .  A
N722       Mn747   2.159       .  S
N723        C727   1.348       .  A
N724        N725   1.328       .  A
N724      Mn1060   2.227       .  S
N725        C726   1.360       .  A
C726        C917   1.450       .  S
C727        C907   1.461       .  S
N728        N734   1.312   1_556  A
N728        N729   1.327       .  A
N728      Mn1082   2.224       .  S
N729        C737   1.362   1_556  A
N730        N731   1.344       .  A
N730        N732   1.317       .  A
N730      Mn1060   2.317       .  S
N731        C738   1.377       .  A
N732        N733   1.333       .  A
N732       Mn758   2.234       .  S
N733        C738   1.356       .  A
N734        N735   1.317       .  A
N734       Mn736   2.187       .  S
N735        C737   1.350       .  A
Mn736      N1048   2.227       .  S
Mn736      N1054   2.317   1_554  S
Mn736      Cl760   2.579       .  S
C737        C874   1.484       .  S
N739        N740   1.340       .  A
N739        N745   1.320       .  A
N739       Mn747   2.257       .  S
N740        C748   1.361       .  A
N741        N743   1.312       .  A
N741        N742   1.316       .  A
N741       Mn759   2.183       .  S
N742        C749   1.350       .  A
N743        N744   1.324       .  A
N743      Mn1071   2.208       .  S
N744        C749   1.359       .  A
N745        N746   1.341       .  A
N745      Mn1083   2.324   1_554  S
N746        C748   1.377       .  A
Mn747      N1042   2.176       .  S
Mn747      N1067   2.209       .  S
Mn747      Cl760   2.554       .  S
C749        C887   1.475       .  S
N750        N751   1.317       .  A
N750        N756   1.321       .  A
N750       Mn758   2.167       .  S
N751        C761   1.349       .  A
N752        N753   1.330       .  A
N752        N754   1.322       .  A
N752      Mn1083   2.253       .  S
N753        C762   1.364       .  A
N754        N755   1.306       .  A
N754      Mn1082   2.158       .  S
N755        C762   1.333       .  A
N756        N757   1.318       .  A
N756       Mn759   2.240       .  S
N757        C761   1.354       .  A
Mn758      N1052   2.224       .  S
Mn758      N1078   2.158       .  S
Mn758     Cl1084   2.553       .  S
Mn759      N1069   2.324       .  S
Mn759      N1076   2.253       .  S
Mn759     Cl1084   2.575       .  S
Cl760     Mn1082   2.553   1_554  S
Cl760     Mn1083   2.575   1_554  S
C761        C894   1.463       .  S
C762        C927   1.456       .  S
N763        N764   1.320       .  A
N763        N769   1.317       .  A
N763       Mn792   2.232       .  S
N764        C771   1.356       .  A
N765        N767   1.315       .  A
N765       N2062   1.319       .  A
N765       Mn781   2.226       .  S
N766       N2061   1.319       .  A
N766        C772   1.356       .  A
N767       N2064   1.313       .  A
N767       Mn792   2.138       .  S
N768       N2063   1.313       .  A
N768        C772   1.341       .  A
N769        N770   1.315       .  A
N769       Mn781   2.146       .  S
N770        C771   1.342       .  A
C771        C904   1.454       .  S
C772        C957   1.449       .  S
N773        N779   1.312       .  A
N773        N774   1.316       .  A
N773       Mn803   2.161       .  S
N774        C782   1.345       .  A
N775        N776   1.335       .  A
N775        N777   1.315       .  A
N775       Mn781   2.274       .  S
N776        C783   1.367       .  A
N777        N778   1.338       .  A
N777      Mn2099   2.283       .  S
N778        C783   1.369       .  A
N779        N780   1.318       .  A
N779      Mn2077   2.175   1_455  S
N780        C782   1.349       .  A
Mn781      N2075   2.175       .  S
Mn781      Cl805   2.543       .  S
C782        C864   1.462       .  S
N784        N785   1.330       .  A
N784        N790   1.315       .  A
N784      Mn2088   2.259   1_455  S
N785        C793   1.363       .  A
N786        N788   1.312       .  A
N786        N787   1.317       .  A
N786      Mn2100   2.173       .  S
N787        C794   1.348       .  A
N788        N789   1.317       .  A
N788       Mn792   2.166       .  S
N789        C794   1.347       .  A
N790        N791   1.343       .  A
N790       Mn804   2.302       .  S
N791        C793   1.374       .  A
Mn792      N2080   2.259       .  S
Mn792      Cl805   2.536       .  S
C794        C854   1.463       .  S
N795       N2092   1.312   1_455  A
N795        N801   1.318       .  A
N795       Mn803   2.128       .  S
N796       N2091   1.312       .  A
N796        C806   1.337       .  A
N797        N798   1.316       .  A
N797        N799   1.318       .  A
N797       Mn804   2.142       .  S
N798        C807   1.341       .  A
N799        N800   1.319       .  A
N799       Mn803   2.238       .  S
N800        C807   1.355       .  A
N801       N2098   1.323   1_455  A
N801       Mn804   2.256       .  S
N802       N2097   1.323       .  A
N802        C806   1.359       .  A
Mn803      N2073   2.283   1_455  S
Mn803     Cl2101   2.539       .  S
Mn804      N2082   2.173   1_455  S
Mn804     Cl2101   2.547       .  S
Cl805     Mn2099   2.539       .  S
Cl805     Mn2100   2.547       .  S
C806        C967   1.451       .  S
C807        C897   1.453       .  S
N808        N809   1.336       .  A
N808        N814   1.315       .  A
N808       Mn837   2.269       .  S
N809        C816   1.364       .  A
N810        N812   1.311       .  A
N810        N811   1.314       .  A
N810       Mn826   2.171       .  S
N811        C817   1.347       .  A
N812        N813   1.326       .  A
N813        C817   1.361       .  A
N814        N815   1.336       .  A
N815        C816   1.368       .  A
C817        C884   1.473       .  S
N818        N824   1.322       .  A
N818        N819   1.316       .  A
N818       Mn848   2.200       .  S
N819        C827   1.353       .  A
N820        N821   1.318       .  A
N820        N822   1.322       .  A
N821        C828   1.344       .  A
N822        N823   1.312       .  A
N823        C828   1.346       .  A
N824        N825   1.316       .  A
N824       Mn826   2.218       .  S
N825        C827   1.352       .  A
Mn826      Cl850   2.550       .  S
C827        C857   1.470       .  S
C828        C947   1.440       .  S
N829        N830   1.316       .  A
N829        N835   1.322       .  A
N830        C838   1.349       .  A
N831        N833   1.319       .  A
N831        N832   1.317       .  A
N831       Mn849   2.221       .  S
N832        C839   1.354       .  A
N833        N834   1.314       .  A
N833       Mn837   2.176       .  S
N834        C839   1.351       .  A
N835        N836   1.316       .  A
N836        C838   1.343       .  A
C838        C937   1.446       .  S
C839        C867   1.468       .  S
N840        N841   1.329       .  A
N840        N846   1.311   1_545  A
N841        C851   1.364   1_545  A
N842        N843   1.332       .  A
N842        N844   1.316       .  A
N843        C852   1.367       .  A
N844        N845   1.342       .  A
N844       Mn848   2.284       .  S
N845        C852   1.369       .  A
N846        N847   1.315       .  A
N846       Mn849   2.162       .  S
N847        C851   1.346       .  A
Mn848      Cl850   2.559       .  S
C851        C877   1.481       .  S
C853        C854   1.401       .  A
C853        C858   1.392       .  A
C853        H859   1.081       .  S
C854        C855   1.400       .  A
C855        C856   1.392       .  A
C855        H860   1.082       .  S
C856        C857   1.406       .  A
C856        H861   1.084       .  S
C857        C858   1.404       .  A
C858        H862   1.083       .  S
C863        C864   1.401       .  A
C863        C868   1.390       .  A
C863        H869   1.083       .  S
C864        C865   1.401       .  A
C865        C866   1.392       .  A
C865        H870   1.083       .  S
C866        C867   1.405       .  A
C866        H871   1.083       .  S
C867        C868   1.405       .  A
C868        H872   1.084       .  S
C873        C874   1.403       .  A
C873        C878   1.403       .  A
C873        H879   1.083       .  S
C874        C875   1.409       .  A
C875        C876   1.402       .  A
C875        H880   1.083       .  S
C876        C877   1.400       .  A
C876        H881   1.083       .  S
C877        C878   1.409       .  A
C878        H882   1.083       .  S
C883        C884   1.400       .  A
C883        C888   1.400       .  A
C883        H889   1.083       .  S
C884        C885   1.407       .  A
C885        C886   1.398       .  A
C885        H890   1.084       .  S
C886        C887   1.401       .  A
C886        H891   1.083       .  S
C887        C888   1.407       .  A
C888        H892   1.083       .  S
C893        C894   1.403       .  A
C893        C898   1.390       .  A
C893        H899   1.083       .  S
C894        C895   1.403       .  A
C895        C896   1.393       .  A
C895        H900   1.084       .  S
C896        C897   1.401       .  A
C896        H901   1.083       .  S
C897        C898   1.397       .  A
C898        H902   1.081       .  S
C903        C904   1.396       .  A
C903        C908   1.390       .  A
C903        H909   1.079       .  S
C904        C905   1.401       .  A
C905        C906   1.392       .  A
C905        H910   1.083       .  S
C906        C907   1.402       .  A
C906        H911   1.083       .  S
C907        C908   1.404       .  A
C908        H912   1.084       .  S
C913        C914   1.402       .  A
C913        C918   1.399       .  A
C913       H1243   1.083       .  S
C914        C915   1.408       .  A
C915        C916   1.389       .  A
C915        H920   1.084       .  S
C916        C917   1.397       .  A
C916        H921   1.084       .  S
C917        C918   1.406       .  A
C918        H922   1.084       .  S
H919       C1237   1.083       .  S
C923        C924   1.411   1_554  A
C923        C928   1.388       .  A
C923        H929   1.083       .  S
C924        C925   1.401       .  A
C925        C926   1.403       .  A
C925       H1254   1.083       .  S
C926        C927   1.411       .  A
C926        H931   1.084       .  S
C927        C928   1.393   1_556  A
C928        H932   1.084       .  S
H930       C1249   1.083       .  S
C933        C934   1.396       .  A
C933        C938   1.387       .  A
C933        H939   1.084       .  S
C935        C936   1.390       .  A
C935        H940   1.084       .  S
C936        C937   1.398       .  A
C936        H941   1.084       .  S
C938        H942   1.083       .  S
C943        C944   1.399       .  A
C943        H949   1.084       .  S
C944        C945   1.394       .  A
C945        H950   1.084       .  S
C946        C947   1.400       .  A
C946        H951   1.084       .  S
C947        C948   1.397   1_545  A
C948        H952   1.084       .  S
C953        C954   1.399       .  A
C953        C958   1.390       .  A
C953        H959   1.084       .  S
C954       C2251   1.407       .  A
C955       C2250   1.407       .  A
C955        C956   1.387       .  A
C955        H960   1.083       .  S
C956        C957   1.394       .  A
C956        H961   1.082       .  S
C957       C2254   1.402       .  A
C958       C2253   1.402       .  A
C958        H962   1.083       .  S
C963       C2260   1.405       .  A
C963        C968   1.390       .  A
C963        H969   1.083       .  S
C964       C2259   1.405       .  A
C964        C965   1.401       .  A
C965        C966   1.390       .  A
C965        H970   1.084       .  S
C966       C2263   1.402       .  A
C966        H971   1.083       .  S
C967       C2262   1.402       .  A
C967        C968   1.395       .  A
C968        H972   1.080       .  S
C973        C974   1.539       .  S
C973        C979   1.560       .  S
C973        C977   1.566       .  S
C973       C1107   1.584       .  S
C974        H981   1.086       .  S
C974        C975   1.370       .  D
C975        C976   1.562       .  S
C975       C1017   1.504       .  S
C976        C980   1.575       .  S
C976        C978   1.580       .  S
C976        H982   1.110       .  S
C977        H983   1.085       .  S
C977        C978   1.387       .  D
C978       C1062   1.554       .  S
C979        H984   1.086       .  S
C979        C980   1.379       .  D
C980       C1140   1.544       .  S
C985        C986   1.541       .  S
C985        C991   1.533       .  S
C985        C989   1.543       .  S
C985       C1027   1.552       .  S
C986        H993   1.086       .  S
C986        C987   1.377       .  D
C987        C988   1.620       .  S
C987       C1072   1.570       .  S
C988        C992   1.604       .  S
C988        C990   1.596       .  S
C988        H994   1.110       .  S
C989        H995   1.087       .  S
C989        C990   1.370       .  D
C990       C1176   1.555       .  S
C991        H996   1.087       .  S
C991        C992   1.370       .  D
C992       C1117   1.547       .  S
N997        N998   1.314       .  A
N997       N1003   1.317   1_455  A
N998       C1005   1.348       .  A
N999       N2297   1.320       .  A
N999       N1000   1.316       .  A
N999      Mn1015   2.209       .  S
N1000      C2302   1.349       .  A
N1001      N2295   1.320       .  A
N1001      N1002   1.317       .  A
N1001     Mn1026   2.193   1_655  S
N1002      C1006   1.354       .  A
N1003      N1004   1.317       .  A
N1003     Mn1663   2.144       .  S
N1004      C1005   1.342   1_655  A
C1005      C1258   1.438   1_545  S
C1006      N2296   1.349       .  A
C1006      C1288   1.461       .  S
N1007      N1013   1.313   1_554  A
N1009      N1010   1.324       .  A
N1009      N1011   1.314       .  A
N1010      C1017   1.354       .  A
N1011      N1012   1.332       .  A
N1012      C1017   1.363       .  A
N1013      N1014   1.306       .  A
N1013     Mn1015   2.152       .  S
N1014      C1016   1.336   1_556  A
Mn1015     N1651   2.144       .  S
Mn1015    Cl1039   2.555       .  S
C1016      C1238   1.470       .  S
N1018      N1019   1.337       .  A
N1018      N1024   1.313       .  A
N1019      C1027   1.369       .  A
N1020      N1021   1.305       .  A
N1020     Mn1038   2.152   1_565  S
N1021      C1028   1.337       .  A
N1022      N1023   1.330   1_545  A
N1024      N1025   1.323       .  A
N1025      C1027   1.353       .  A
Mn1026    Cl2335   2.529   1_455  S
C1028      C1248   1.476       .  S
N1029      N1030   1.320       .  A
N1029      N1035   1.318       .  A
N1029     Mn1037   2.191       .  S
N1030      C1040   1.356       .  A
N1031      N1032   1.314       .  A
N1031      N1033   1.317       .  A
N1031     Mn1686   2.135       .  S
N1032      C1041   1.339       .  A
N1033      N1034   1.317       .  A
N1034      C1041   1.351       .  A
N1035      N2332   1.311       .  A
N1035     Mn2334   2.190   1_565  S
N1036      N2331   1.311       .  A
N1036      C2336   1.344       .  A
Mn1038     N1679   2.135   1_455  S
Mn1038     N2331   2.190   1_545  S
Mn1038    Cl1363   2.542   1_455  S
Cl1039    Mn2322   2.529       .  S
Cl1039    Mn1362   2.542   1_556  S
C1040      N2332   1.344       .  A
C1040      C1278   1.459       .  S
C1041      C1268   1.436       .  S
N1042      N1043   1.306       .  A
N1042      N1048   1.322       .  A
N1043      C1050   1.336       .  A
N1044      N1046   1.322       .  A
N1044      N1045   1.318       .  A
N1044     Mn1060   2.244       .  S
N1045      C1051   1.355       .  A
N1046      N1047   1.315       .  A
N1046     Mn1071   2.159       .  S
N1047      C1051   1.348       .  A
N1048      N1049   1.328       .  A
N1049      C1050   1.360       .  A
C1050      C1241   1.450       .  S
C1051      C1231   1.461       .  S
N1052      N1058   1.312       .  A
N1052      N1053   1.327       .  A
N1053      C1061   1.362       .  A
N1054      N1055   1.344       .  A
N1054      N1056   1.317       .  A
N1055      C1062   1.377       .  A
N1056      N1057   1.333       .  A
N1056     Mn1082   2.234       .  S
N1057      C1062   1.356       .  A
N1058      N1059   1.317       .  A
N1058     Mn1060   2.187       .  S
N1059      C1061   1.350       .  A
Mn1060    Cl1084   2.579       .  S
C1061      C1198   1.484       .  S
N1063      N1064   1.340       .  A
N1063      N1069   1.320       .  A
N1063     Mn1071   2.257       .  S
N1064      C1072   1.361       .  A
N1065      N1067   1.312   1_556  A
N1065      N1066   1.316       .  A
N1065     Mn1083   2.183       .  S
N1066      C1073   1.350       .  A
N1067      N1068   1.324       .  A
N1068      C1073   1.359   1_554  A
N1069      N1070   1.341       .  A
N1070      C1072   1.377       .  A
Mn1071    Cl1084   2.554       .  S
C1073      C1211   1.475       .  S
N1074      N1075   1.317       .  A
N1074      N1080   1.321       .  A
N1074     Mn1082   2.167       .  S
N1075      C1085   1.349       .  A
N1076      N1077   1.330       .  A
N1076      N1078   1.322       .  A
N1077      C1086   1.364       .  A
N1078      N1079   1.306       .  A
N1079      C1086   1.333       .  A
N1080      N1081   1.318       .  A
N1080     Mn1083   2.240       .  S
N1081      C1085   1.354       .  A
C1085      C1218   1.463       .  S
C1086      C1251   1.456       .  S
N1087      N1088   1.320       .  A
N1087      N1093   1.317       .  A
N1087     Mn1116   2.232       .  S
N1088      C1095   1.356       .  A
N1089      N1091   1.315       .  A
N1089      N2386   1.319       .  A
N1089     Mn1105   2.226       .  S
N1090      N2385   1.319       .  A
N1090      C1096   1.356       .  A
N1091      N2388   1.313       .  A
N1091     Mn1116   2.138       .  S
N1092      N2387   1.313       .  A
N1092      C1096   1.341       .  A
N1093      N1094   1.315       .  A
N1093     Mn1105   2.147       .  S
N1094      C1095   1.342       .  A
C1095      C1228   1.454       .  S
C1096      C1281   1.449       .  S
N1097      N1103   1.312       .  A
N1097      N1098   1.316       .  A
N1097     Mn1127   2.161       .  S
N1098      C1106   1.345       .  A
N1099      N1100   1.335       .  A
N1099      N1101   1.315       .  A
N1099     Mn1105   2.274       .  S
N1100      C1107   1.367       .  A
N1101      N1102   1.338       .  A
N1101     Mn2423   2.283       .  S
N1102      C1107   1.369       .  A
N1103      N1104   1.318       .  A
N1103     Mn2401   2.175   1_455  S
N1104      C1106   1.349       .  A
Mn1105     N2399   2.175       .  S
Mn1105    Cl1129   2.543       .  S
C1106      C1188   1.462       .  S
N1108      N1109   1.330       .  A
N1108      N1114   1.315       .  A
N1108     Mn2412   2.259   1_455  S
N1109      C1117   1.363       .  A
N1110      N1112   1.312       .  A
N1110      N1111   1.317       .  A
N1110     Mn2424   2.173       .  S
N1111      C1118   1.348       .  A
N1112      N1113   1.317       .  A
N1112     Mn1116   2.166       .  S
N1113      C1118   1.347       .  A
N1114      N1115   1.343       .  A
N1114     Mn1128   2.302       .  S
N1115      C1117   1.374       .  A
Mn1116     N2404   2.259       .  S
Mn1116    Cl1129   2.536       .  S
C1118      C1178   1.463       .  S
N1119      N2416   1.312   1_455  A
N1119      N1125   1.318       .  A
N1119     Mn1127   2.128       .  S
N1120      N2415   1.312       .  A
N1120      C1130   1.337       .  A
N1121      N1122   1.316       .  A
N1121      N1123   1.318       .  A
N1121     Mn1128   2.142       .  S
N1122      C1131   1.341       .  A
N1123      N1124   1.319       .  A
N1123     Mn1127   2.238       .  S
N1124      C1131   1.355       .  A
N1125      N2422   1.323   1_455  A
N1125     Mn1128   2.256       .  S
N1126      N2421   1.323       .  A
N1126      C1130   1.359       .  A
Mn1127     N2397   2.283   1_455  S
Mn1127    Cl2425   2.539       .  S
Mn1128     N2406   2.173   1_455  S
Mn1128    Cl2425   2.547       .  S
Cl1129    Mn2423   2.539       .  S
Cl1129    Mn2424   2.547       .  S
C1130      C1291   1.451       .  S
C1131      C1221   1.453       .  S
N1132      N1133   1.336       .  A
N1132      N1138   1.315       .  A
N1132     Mn1161   2.269       .  S
N1133      C1140   1.364       .  A
N1134      N1136   1.311       .  A
N1134      N1135   1.314       .  A
N1134     Mn1150   2.171       .  S
N1135      C1141   1.347       .  A
N1136      N1137   1.326       .  A
N1137      C1141   1.361       .  A
N1138      N1139   1.336       .  A
N1139      C1140   1.368       .  A
C1141      C1208   1.473       .  S
N1142      N1148   1.322       .  A
N1142      N1143   1.316       .  A
N1142     Mn1172   2.200       .  S
N1143      C1151   1.353       .  A
N1144      N1145   1.318       .  A
N1144      N1146   1.322       .  A
N1145      C1152   1.344       .  A
N1146      N1147   1.312       .  A
N1147      C1152   1.346       .  A
N1148      N1149   1.316       .  A
N1148     Mn1150   2.218       .  S
N1149      C1151   1.352       .  A
Mn1150    Cl1174   2.550       .  S
C1151      C1181   1.470       .  S
C1152      C1271   1.440       .  S
N1153      N1154   1.316       .  A
N1153      N1159   1.322       .  A
N1154      C1162   1.349       .  A
N1155      N1157   1.319       .  A
N1155      N1156   1.317       .  A
N1155     Mn1173   2.221       .  S
N1156      C1163   1.354       .  A
N1157      N1158   1.314       .  A
N1157     Mn1161   2.176       .  S
N1158      C1163   1.351       .  A
N1159      N1160   1.316       .  A
N1160      C1162   1.343       .  A
C1162      C1261   1.446       .  S
C1163      C1191   1.468       .  S
N1164      N1165   1.329       .  A
N1164      N1170   1.311   1_545  A
N1165      C1175   1.364   1_545  A
N1166      N1167   1.332       .  A
N1166      N1168   1.316       .  A
N1167      C1176   1.367       .  A
N1168      N1169   1.342       .  A
N1168     Mn1172   2.284       .  S
N1169      C1176   1.369       .  A
N1170      N1171   1.315       .  A
N1170     Mn1173   2.162       .  S
N1171      C1175   1.346       .  A
Mn1172    Cl1174   2.559       .  S
C1175      C1201   1.481       .  S
C1177      C1178   1.401       .  A
C1177      C1182   1.392       .  A
C1177      H1183   1.081       .  S
C1178      C1179   1.400       .  A
C1179      C1180   1.392       .  A
C1179      H1184   1.082       .  S
C1180      C1181   1.406       .  A
C1180      H1185   1.084       .  S
C1181      C1182   1.404       .  A
C1182      H1186   1.083       .  S
C1187      C1188   1.401       .  A
C1187      C1192   1.390       .  A
C1187      H1193   1.083       .  S
C1188      C1189   1.401       .  A
C1189      C1190   1.392       .  A
C1189      H1194   1.083       .  S
C1190      C1191   1.405       .  A
C1190      H1195   1.083       .  S
C1191      C1192   1.405       .  A
C1192      H1196   1.084       .  S
C1197      C1198   1.403       .  A
C1197      C1202   1.403       .  A
C1197      H1203   1.083       .  S
C1198      C1199   1.409       .  A
C1199      C1200   1.402       .  A
C1199      H1204   1.083       .  S
C1200      C1201   1.400       .  A
C1200      H1205   1.083       .  S
C1201      C1202   1.409       .  A
C1202      H1206   1.083       .  S
C1207      C1208   1.400       .  A
C1207      C1212   1.400       .  A
C1207      H1213   1.083       .  S
C1208      C1209   1.407       .  A
C1209      C1210   1.398       .  A
C1209      H1214   1.084       .  S
C1210      C1211   1.401       .  A
C1210      H1215   1.083       .  S
C1211      C1212   1.407       .  A
C1212      H1216   1.083       .  S
C1217      C1218   1.403       .  A
C1217      C1222   1.390       .  A
C1217      H1223   1.083       .  S
C1218      C1219   1.403       .  A
C1219      C1220   1.393       .  A
C1219      H1224   1.084       .  S
C1220      C1221   1.401       .  A
C1220      H1225   1.083       .  S
C1221      C1222   1.397       .  A
C1222      H1226   1.081       .  S
C1227      C1228   1.396       .  A
C1227      C1232   1.390       .  A
C1227      H1233   1.079       .  S
C1228      C1229   1.401       .  A
C1229      C1230   1.392       .  A
C1229      H1234   1.083       .  S
C1230      C1231   1.402       .  A
C1230      H1235   1.083       .  S
C1231      C1232   1.404       .  A
C1232      H1236   1.084       .  S
C1237      C1238   1.402       .  A
C1237      C1242   1.399       .  A
C1238      C1239   1.408   1_554  A
C1239      C1240   1.389       .  A
C1239      H1244   1.084       .  S
C1240      C1241   1.397   1_556  A
C1240      H1245   1.084       .  S
C1241      C1242   1.406       .  A
C1242      H1246   1.084       .  S
C1247      C1248   1.411       .  A
C1247      C1252   1.388       .  A
C1247      H1253   1.083       .  S
C1248      C1249   1.401       .  A
C1249      C1250   1.403       .  A
C1250      C1251   1.411       .  A
C1250      H1255   1.084       .  S
C1251      C1252   1.393       .  A
C1252      H1256   1.084       .  S
C1257      C1258   1.396       .  A
C1257      C1262   1.387       .  A
C1257      H1263   1.084       .  S
C1259      C1260   1.390       .  A
C1259      H1264   1.084       .  S
C1260      C1261   1.398       .  A
C1260      H1265   1.084       .  S
C1262      H1266   1.083       .  S
C1267      C1268   1.399       .  A
C1267      H1273   1.084       .  S
C1268      C1269   1.394       .  A
C1269      H1274   1.084       .  S
C1270      C1271   1.400       .  A
C1270      H1275   1.084       .  S
C1271      C1272   1.397   1_545  A
C1272      H1276   1.084       .  S
C1277      C1278   1.399       .  A
C1277      C1282   1.390       .  A
C1277      H1283   1.084       .  S
C1278      C2575   1.407       .  A
C1279      C2574   1.407       .  A
C1279      C1280   1.387       .  A
C1279      H1284   1.083       .  S
C1280      C1281   1.394       .  A
C1280      H1285   1.082       .  S
C1281      C2578   1.402       .  A
C1282      C2577   1.402       .  A
C1282      H1286   1.083       .  S
C1287      C2584   1.405       .  A
C1287      C1292   1.390       .  A
C1287      H1293   1.083       .  S
C1288      C2583   1.405       .  A
C1288      C1289   1.401       .  A
C1289      C1290   1.390       .  A
C1289      H1294   1.084       .  S
C1290      C2587   1.402       .  A
C1290      H1295   1.083       .  S
C1291      C2586   1.402       .  A
C1291      C1292   1.395       .  A
C1292      H1296   1.080       .  S
C1297      C1298   1.539       .  S
C1297      C1303   1.560       .  S
C1297      C1301   1.566       .  S
C1297      C1431   1.584       .  S
C1298      H1305   1.086       .  S
C1298      C1299   1.370       .  D
C1299      C1300   1.562       .  S
C1299      C1341   1.504       .  S
C1300      C1304   1.575       .  S
C1300      C1302   1.580       .  S
C1300      H1306   1.110       .  S
C1301      H1307   1.085       .  S
C1301      C1302   1.387       .  D
C1302      C1386   1.554       .  S
C1303      H1308   1.086       .  S
C1303      C1304   1.379       .  D
C1304      C1464   1.544       .  S
C1309      C1310   1.541       .  S
C1309      C1315   1.533       .  S
C1309      C1313   1.543       .  S
C1309      C1351   1.552       .  S
C1310      H1317   1.086       .  S
C1310      C1311   1.377       .  D
C1311      C1312   1.620       .  S
C1311      C1396   1.570       .  S
C1312      C1316   1.604       .  S
C1312      C1314   1.596       .  S
C1312      H1318   1.110       .  S
C1313      H1319   1.087       .  S
C1313      C1314   1.370       .  D
C1314      C1500   1.555       .  S
C1315      H1320   1.087       .  S
C1315      C1316   1.370       .  D
C1316      C1441   1.547       .  S
N1321      N1322   1.314       .  A
N1321      N1327   1.317       .  A
N1321     Mn1998   2.210       .  S
N1322      C1329   1.348       .  A
N1323      N1324   1.316       .  A
N1323     Mn1339   2.209       .  S
N1325      N1326   1.317       .  A
N1325     Mn1350   2.193       .  S
N1326      C1330   1.354       .  A
N1327      N1328   1.317       .  A
N1328      C1329   1.342       .  A
C1329      C1582   1.438       .  S
C1330      C1612   1.461       .  S
N1331      N1337   1.313       .  A
N1331      N1656   1.327       .  A
N1331     Mn2333   2.214   1_545  S
N1332      N1655   1.327       .  A
N1332      C1664   1.360       .  A
N1333      N1334   1.324       .  A
N1333      N1335   1.314       .  A
N1333     Mn1987   2.194       .  S
N1334      C1341   1.354       .  A
N1335      N1336   1.332       .  A
N1335     Mn1685   2.272       .  S
N1336      C1341   1.363       .  A
N1337      N1338   1.306       .  A
N1337     Mn1339   2.152       .  S
N1338      C1340   1.336       .  A
Mn1339     N1981   2.194   1_545  S
Mn1339    Cl1363   2.555       .  S
C1340      N1656   1.360       .  A
C1340      C1562   1.470       .  S
N1342      N1343   1.337       .  A
N1342      N1348   1.313       .  A
N1342     Mn1674   2.291   1_554  S
N1343      C1351   1.369       .  A
N1344      N1670   1.312   1_554  A
N1344      N1345   1.305       .  A
N1344     Mn1362   2.152       .  S
N1345      C1352   1.337   1_554  A
N1346      N1668   1.312       .  A
N1346      N1347   1.330       .  A
N1346     Mn1998   2.215       .  S
N1347      C1676   1.363       .  A
N1348      N1349   1.323       .  A
N1348     Mn2010   2.184       .  S
N1349      C1351   1.353       .  A
Mn1350     N1969   2.210       .  S
Mn1350     N1666   2.291       .  S
Mn1350     N1994   2.215       .  S
C1352      N1671   1.363       .  A
C1352      C1572   1.476       .  S
N1353      N1354   1.320       .  A
N1353      N1359   1.318   1_655  A
N1353     Mn1361   2.191       .  S
N1354      C1364   1.356   1_655  A
N1355      N1356   1.314       .  A
N1355      N1357   1.317   1_545  A
N1356      C1365   1.339       .  A
N1357      N1358   1.317       .  A
N1357     Mn2009   2.213       .  S
N1358      C1365   1.351   1_565  A
Mn1361     N2303   2.214       .  S
Mn1361     N1659   2.272   1_554  S
Mn1361     N2005   2.213       .  S
Mn1361    Cl2335   2.529   1_554  S
Mn1362     N1996   2.184       .  S
Cl1363    Mn2333   2.529   1_545  S
C1364      C1602   1.459       .  S
C1365      C1592   1.436       .  S
N1366      N1367   1.306       .  A
N1366      N1372   1.322       .  A
N1366     Mn1719   2.176       .  S
N1367      C1374   1.336       .  A
N1368      N1370   1.322       .  A
N1368      N1369   1.318       .  A
N1368     Mn1384   2.244       .  S
N1369      C1375   1.355       .  A
N1370      N1371   1.315       .  A
N1370     Mn1395   2.159       .  S
N1371      C1375   1.348       .  A
N1372      N1373   1.328       .  A
N1372     Mn1708   2.227       .  S
N1373      C1374   1.360       .  A
C1374      C1565   1.450       .  S
C1375      C1555   1.461       .  S
N1376      N1382   1.312   1_556  A
N1376      N1377   1.327       .  A
N1376     Mn1730   2.224       .  S
N1377      C1385   1.362   1_556  A
N1378      N1379   1.344       .  A
N1378      N1380   1.317       .  A
N1378     Mn1708   2.317       .  S
N1379      C1386   1.377       .  A
N1380      N1381   1.333       .  A
N1380     Mn1406   2.234       .  S
N1381      C1386   1.356       .  A
N1382      N1383   1.317       .  A
N1382     Mn1384   2.187       .  S
N1383      C1385   1.350       .  A
Mn1384     N1696   2.227       .  S
Mn1384     N1702   2.317   1_554  S
Mn1384    Cl1408   2.579       .  S
C1385      C1522   1.484       .  S
N1387      N1388   1.340       .  A
N1387      N1393   1.320       .  A
N1387     Mn1395   2.257       .  S
N1388      C1396   1.361       .  A
N1389      N1391   1.312       .  A
N1389      N1390   1.316       .  A
N1389     Mn1407   2.183       .  S
N1390      C1397   1.350       .  A
N1391      N1392   1.324       .  A
N1391     Mn1719   2.209       .  S
N1392      C1397   1.359       .  A
N1393      N1394   1.341       .  A
N1393     Mn1731   2.324   1_554  S
N1394      C1396   1.377       .  A
Mn1395     N1690   2.176       .  S
Mn1395     N1715   2.209       .  S
Mn1395    Cl1408   2.555       .  S
C1397      C1535   1.475       .  S
N1398      N1399   1.317       .  A
N1398      N1404   1.321       .  A
N1398     Mn1406   2.167       .  S
N1399      C1409   1.349       .  A
N1400      N1401   1.330       .  A
N1400      N1402   1.322       .  A
N1400     Mn1731   2.253       .  S
N1401      C1410   1.364       .  A
N1402      N1403   1.306       .  A
N1402     Mn1730   2.158       .  S
N1403      C1410   1.333       .  A
N1404      N1405   1.318       .  A
N1404     Mn1407   2.240       .  S
N1405      C1409   1.354       .  A
Mn1406     N1700   2.224       .  S
Mn1406     N1726   2.158       .  S
Mn1406    Cl1732   2.553       .  S
Mn1407     N1717   2.324       .  S
Mn1407     N1724   2.253       .  S
Mn1407    Cl1732   2.575       .  S
Cl1408    Mn1730   2.553   1_554  S
Cl1408    Mn1731   2.575   1_554  S
C1409      C1542   1.463       .  S
C1410      C1575   1.456       .  S
N1411      N1412   1.320       .  A
N1411      N1417   1.317       .  A
N1411     Mn1440   2.232       .  S
N1412      C1419   1.356       .  A
N1413      N1415   1.315       .  A
N1413     Mn1429   2.226   1_455  S
N1414      C1420   1.356       .  A
N1415     Mn1440   2.138   1_455  S
N1416      C1420   1.341       .  A
N1417      N1418   1.315       .  A
N1417     Mn1429   2.146       .  S
N1418      C1419   1.342       .  A
C1419      C1552   1.454       .  S
C1420      C1605   1.449       .  S
N1421      N1427   1.312       .  A
N1421      N1422   1.316       .  A
N1421     Mn1451   2.161       .  S
N1422      C1430   1.345       .  A
N1423      N1424   1.335       .  A
N1423      N1425   1.315       .  A
N1423     Mn1429   2.274       .  S
N1424      C1431   1.367       .  A
N1425      N1426   1.338       .  A
N1426      C1431   1.369       .  A
N1427      N1428   1.318       .  A
N1428      C1430   1.349       .  A
Mn1429    Cl1453   2.543   1_655  S
C1430      C1512   1.462       .  S
N1432      N1433   1.330       .  A
N1432      N1438   1.315       .  A
N1433      C1441   1.363       .  A
N1434      N1436   1.312       .  A
N1434      N1435   1.317       .  A
N1435      C1442   1.348       .  A
N1436      N1437   1.317       .  A
N1436     Mn1440   2.166       .  S
N1437      C1442   1.347       .  A
N1438      N1439   1.343       .  A
N1438     Mn1452   2.302       .  S
N1439      C1441   1.374       .  A
Mn1440    Cl1453   2.536   1_655  S
C1442      C1502   1.463       .  S
N1443      N1449   1.318       .  A
N1443     Mn1451   2.128       .  S
N1444      C1454   1.337       .  A
N1445      N1446   1.316       .  A
N1445      N1447   1.318       .  A
N1445     Mn1452   2.142       .  S
N1446      C1455   1.341       .  A
N1447      N1448   1.319       .  A
N1447     Mn1451   2.238       .  S
N1448      C1455   1.355       .  A
N1449     Mn1452   2.256       .  S
N1450      C1454   1.359       .  A
C1454      C1615   1.451       .  S
C1455      C1545   1.453       .  S
N1456      N1457   1.336       .  A
N1456      N1462   1.315       .  A
N1456     Mn1485   2.269       .  S
N1457      C1464   1.364       .  A
N1458      N1460   1.311       .  A
N1458      N1459   1.314       .  A
N1458     Mn1474   2.171       .  S
N1459      C1465   1.347       .  A
N1460      N1461   1.326       .  A
N1460     Mn2133   2.219   1_545  S
N1461      C1465   1.361       .  A
N1462      N1463   1.336       .  A
N1462     Mn2122   2.274       .  S
N1463      C1464   1.368       .  A
C1465      C1532   1.473       .  S
N1466      N1472   1.322       .  A
N1466      N1467   1.316       .  A
N1466     Mn1496   2.200       .  S
N1467      C1475   1.353       .  A
N1468      N1469   1.318       .  A
N1468      N1470   1.322       .  A
N1468     Mn2122   2.163       .  S
N1469      C1476   1.344       .  A
N1470      N1471   1.312       .  A
N1470     Mn2144   2.207       .  S
N1471      C1476   1.346       .  A
N1472      N1473   1.316       .  A
N1472     Mn1474   2.218       .  S
N1473      C1475   1.352       .  A
Mn1474     N2110   2.274   1_545  S
Mn1474     N2116   2.163       .  S
Mn1474    Cl1498   2.550       .  S
C1475      C1505   1.470       .  S
C1476      C1595   1.440       .  S
N1477      N1478   1.316       .  A
N1477      N1483   1.322       .  A
N1477     Mn2133   2.214       .  S
N1478      C1486   1.349       .  A
N1479      N1481   1.319       .  A
N1479      N1480   1.317       .  A
N1479     Mn1497   2.221       .  S
N1480      C1487   1.354       .  A
N1481      N1482   1.314       .  A
N1481     Mn1485   2.176       .  S
N1482      C1487   1.351       .  A
N1483      N1484   1.316   1_565  A
N1483     Mn2145   2.166       .  S
N1484      C1486   1.343   1_545  A
Mn1485     N2108   2.219       .  S
Mn1485     N2125   2.214       .  S
Mn1485    Cl2146   2.561       .  S
C1486      C1585   1.446       .  S
C1487      C1515   1.468       .  S
N1488      N1489   1.329       .  A
N1488      N1494   1.311       .  A
N1488     Mn2144   2.239       .  S
N1489      C1499   1.364       .  A
N1490      N1491   1.332       .  A
N1490      N1492   1.316       .  A
N1490     Mn2145   2.275   1_545  S
N1491      C1500   1.367       .  A
N1492      N1493   1.342       .  A
N1492     Mn1496   2.284       .  S
N1493      C1500   1.369       .  A
N1494      N1495   1.315       .  A
N1494     Mn1497   2.162       .  S
N1495      C1499   1.346       .  A
Mn1496     N2118   2.207       .  S
Mn1496     N2136   2.239       .  S
Mn1496    Cl1498   2.559       .  S
Mn1497     N2131   2.166       .  S
Mn1497     N2138   2.275       .  S
Mn1497    Cl2146   2.547       .  S
Cl1498    Mn2133   2.561   1_545  S
Cl1498    Mn2145   2.547   1_545  S
C1499      C1525   1.481       .  S
C1501      C1502   1.401       .  A
C1501      C1506   1.392       .  A
C1501      H1507   1.081       .  S
C1502      C1503   1.400       .  A
C1503      C1504   1.392       .  A
C1503      H1508   1.082       .  S
C1504      C1505   1.406       .  A
C1504      H1509   1.084       .  S
C1505      C1506   1.404       .  A
C1506      H1510   1.083       .  S
C1511      C1512   1.401       .  A
C1511      C1516   1.390       .  A
C1511      H1517   1.083       .  S
C1512      C1513   1.401       .  A
C1513      C1514   1.392       .  A
C1513      H1518   1.083       .  S
C1514      C1515   1.405       .  A
C1514      H1519   1.083       .  S
C1515      C1516   1.405       .  A
C1516      H1520   1.084       .  S
C1521      C1522   1.403       .  A
C1521      C1526   1.403       .  A
C1521      H1527   1.083       .  S
C1522      C1523   1.409       .  A
C1523      C1524   1.402       .  A
C1523      H1528   1.083       .  S
C1524      C1525   1.400       .  A
C1524      H1529   1.083       .  S
C1525      C1526   1.409       .  A
C1526      H1530   1.083       .  S
C1531      C1532   1.400       .  A
C1531      C1536   1.400       .  A
C1531      H1537   1.083       .  S
C1532      C1533   1.407       .  A
C1533      C1534   1.398       .  A
C1533      H1538   1.084       .  S
C1534      C1535   1.401       .  A
C1534      H1539   1.083       .  S
C1535      C1536   1.407       .  A
C1536      H1540   1.083       .  S
C1541      C1542   1.403       .  A
C1541      C1546   1.390       .  A
C1541      H1547   1.083       .  S
C1542      C1543   1.403       .  A
C1543      C1544   1.393       .  A
C1543      H1548   1.084       .  S
C1544      C1545   1.401       .  A
C1544      H1549   1.083       .  S
C1545      C1546   1.397       .  A
C1546      H1550   1.081       .  S
C1551      C1552   1.396       .  A
C1551      C1556   1.390       .  A
C1551      H1557   1.079       .  S
C1552      C1553   1.401       .  A
C1553      C1554   1.392       .  A
C1553      H1558   1.083       .  S
C1554      C1555   1.402       .  A
C1554      H1559   1.083       .  S
C1555      C1556   1.404       .  A
C1556      H1560   1.084       .  S
C1561      C1562   1.402       .  A
C1561      C1566   1.399       .  A
C1561      H1891   1.083       .  S
C1562      C1563   1.408       .  A
C1563      C1564   1.389       .  A
C1563      H1568   1.084       .  S
C1564      C1565   1.397       .  A
C1564      H1569   1.084       .  S
C1565      C1566   1.406       .  A
C1566      H1570   1.084       .  S
H1567      C1885   1.083       .  S
C1571      C1572   1.411   1_554  A
C1571      C1576   1.388       .  A
C1571      H1577   1.083       .  S
C1572      C1573   1.401       .  A
C1573      C1574   1.403       .  A
C1573      H1902   1.083       .  S
C1574      C1575   1.411       .  A
C1574      H1579   1.083       .  S
C1575      C1576   1.393   1_556  A
C1576      H1580   1.084       .  S
H1578      C1897   1.083       .  S
C1581      C1582   1.396       .  A
C1581      C1586   1.387       .  A
C1581      H1587   1.084       .  S
C1582      C2231   1.399       .  A
C1583      C2230   1.399   1_545  A
C1583      C1584   1.390       .  A
C1583      H1588   1.084       .  S
C1584      C1585   1.398   1_545  A
C1584      H1589   1.084       .  S
C1585      C2234   1.399       .  A
C1586      C2233   1.399       .  A
C1586      H1590   1.083       .  S
C1591      C1592   1.399   1_565  A
C1591      C2244   1.389       .  A
C1591      H1597   1.084       .  S
C1592      C1593   1.394       .  A
C1593      C2242   1.385       .  A
C1593      H1598   1.084       .  S
C1594      C2241   1.385       .  A
C1594      C1595   1.400       .  A
C1594      H1599   1.084       .  S
C1595      C1596   1.397       .  A
C1596      C2239   1.389       .  A
C1596      H1600   1.084       .  S
C1601      C1602   1.399       .  A
C1601      C1606   1.390       .  A
C1601      H1607   1.084       .  S
C1603      C1604   1.387       .  A
C1603      H1608   1.083       .  S
C1604      C1605   1.394       .  A
C1604      H1609   1.082       .  S
C1606      H1610   1.083       .  S
C1611      C1616   1.390       .  A
C1611      H1617   1.083       .  S
C1612      C1613   1.401       .  A
C1613      C1614   1.390       .  A
C1613      H1618   1.084       .  S
C1614      H1619   1.083       .  S
C1615      C1616   1.395       .  A
C1616      H1620   1.080       .  S
C1621      C1622   1.539       .  S
C1621      C1627   1.560       .  S
C1621      C1625   1.566       .  S
C1621      C1755   1.584       .  S
C1622      H1629   1.086       .  S
C1622      C1623   1.370       .  D
C1623      C1624   1.562       .  S
C1623      C1665   1.504       .  S
C1624      C1628   1.575       .  S
C1624      C1626   1.580       .  S
C1624      H1630   1.110       .  S
C1625      H1631   1.085       .  S
C1625      C1626   1.387       .  D
C1626      C1710   1.554       .  S
C1627      H1632   1.086       .  S
C1627      C1628   1.379       .  D
C1628      C1788   1.544       .  S
C1633      C1634   1.541       .  S
C1633      C1639   1.533       .  S
C1633      C1637   1.543       .  S
C1633      C1675   1.552       .  S
C1634      H1641   1.086       .  S
C1634      C1635   1.377       .  D
C1635      C1636   1.620       .  S
C1635      C1720   1.570       .  S
C1636      C1640   1.604       .  S
C1636      C1638   1.596       .  S
C1636      H1642   1.110       .  S
C1637      H1643   1.087       .  S
C1637      C1638   1.370       .  D
C1638      C1824   1.555       .  S
C1639      H1644   1.087       .  S
C1639      C1640   1.370       .  D
C1640      C1765   1.547       .  S
N1645      N1646   1.314       .  A
N1645      N1651   1.317       .  A
N1645     Mn2322   2.210       .  S
N1646      C1653   1.348       .  A
N1647      N1648   1.316       .  A
N1647     Mn1663   2.209       .  S
N1649      N1650   1.317       .  A
N1649     Mn1674   2.193       .  S
N1650      C1654   1.354       .  A
N1651      N1652   1.317       .  A
N1652      C1653   1.342       .  A
C1653      C1906   1.438       .  S
C1654      C1936   1.461       .  S
N1655      N1661   1.313   1_554  A
N1655     Mn2009   2.214   1_545  S
N1657      N1658   1.324       .  A
N1657      N1659   1.314       .  A
N1657     Mn2311   2.194       .  S
N1658      C1665   1.354       .  A
N1659      N1660   1.332       .  A
N1660      C1665   1.363       .  A
N1661      N1662   1.306       .  A
N1661     Mn1663   2.152       .  S
N1662      C1664   1.336   1_556  A
Mn1663     N2305   2.194   1_545  S
Mn1663    Cl1687   2.555       .  S
C1664      C1886   1.470       .  S
N1666      N1667   1.337       .  A
N1666      N1672   1.313       .  A
N1667      C1675   1.369       .  A
N1668      N1669   1.305       .  A
N1668     Mn1686   2.152       .  S
N1669      C1676   1.337       .  A
N1670      N1671   1.330       .  A
N1670     Mn2322   2.215       .  S
N1672      N1673   1.323       .  A
N1672     Mn2334   2.184       .  S
N1673      C1675   1.353       .  A
Mn1674     N2293   2.210       .  S
Mn1674     N2318   2.215       .  S
C1676      C1896   1.476       .  S
N1677      N1678   1.320       .  A
N1677      N1683   1.318   1_655  A
N1677     Mn1685   2.191       .  S
N1678      C1688   1.356   1_655  A
N1679      N1680   1.314       .  A
N1679      N1681   1.317   1_545  A
N1680      C1689   1.339       .  A
N1681      N1682   1.317       .  A
N1681     Mn2333   2.213       .  S
N1682      C1689   1.351   1_565  A
Mn1685     N1979   2.214       .  S
Mn1685     N2329   2.213       .  S
Mn1685    Cl2011   2.529       .  S
Mn1686     N2320   2.184       .  S
Cl1687    Mn2009   2.529   1_546  S
C1688      C1926   1.459       .  S
C1689      C1916   1.436       .  S
N1690      N1691   1.306       .  A
N1690      N1696   1.322       .  A
N1691      C1698   1.336       .  A
N1692      N1694   1.322       .  A
N1692      N1693   1.318       .  A
N1692     Mn1708   2.244       .  S
N1693      C1699   1.355       .  A
N1694      N1695   1.315       .  A
N1694     Mn1719   2.159       .  S
N1695      C1699   1.348       .  A
N1696      N1697   1.328       .  A
N1697      C1698   1.360       .  A
C1698      C1889   1.450       .  S
C1699      C1879   1.461       .  S
N1700      N1706   1.312       .  A
N1700      N1701   1.327       .  A
N1701      C1709   1.362       .  A
N1702      N1703   1.344       .  A
N1702      N1704   1.317       .  A
N1703      C1710   1.377       .  A
N1704      N1705   1.333       .  A
N1704     Mn1730   2.234       .  S
N1705      C1710   1.356       .  A
N1706      N1707   1.317       .  A
N1706     Mn1708   2.187       .  S
N1707      C1709   1.350       .  A
Mn1708    Cl1732   2.579       .  S
C1709      C1846   1.484       .  S
N1711      N1712   1.340       .  A
N1711      N1717   1.320       .  A
N1711     Mn1719   2.257       .  S
N1712      C1720   1.361       .  A
N1713      N1715   1.312   1_556  A
N1713      N1714   1.316       .  A
N1713     Mn1731   2.183       .  S
N1714      C1721   1.350       .  A
N1715      N1716   1.324       .  A
N1716      C1721   1.359   1_554  A
N1717      N1718   1.341       .  A
N1718      C1720   1.377       .  A
Mn1719    Cl1732   2.555       .  S
C1721      C1859   1.475       .  S
N1722      N1723   1.317       .  A
N1722      N1728   1.321       .  A
N1722     Mn1730   2.167       .  S
N1723      C1733   1.349       .  A
N1724      N1725   1.330       .  A
N1724      N1726   1.322       .  A
N1725      C1734   1.364       .  A
N1726      N1727   1.306       .  A
N1727      C1734   1.333       .  A
N1728      N1729   1.318       .  A
N1728     Mn1731   2.240       .  S
N1729      C1733   1.354       .  A
C1733      C1866   1.463       .  S
C1734      C1899   1.456       .  S
N1735      N1736   1.320       .  A
N1735      N1741   1.317       .  A
N1735     Mn1764   2.232       .  S
N1736      C1743   1.356       .  A
N1737      N1739   1.315       .  A
N1737     Mn1753   2.226   1_455  S
N1738      C1744   1.356       .  A
N1739     Mn1764   2.138   1_455  S
N1740      C1744   1.341       .  A
N1741      N1742   1.315       .  A
N1741     Mn1753   2.146       .  S
N1742      C1743   1.342       .  A
C1743      C1876   1.454       .  S
C1744      C1929   1.449       .  S
N1745      N1751   1.312       .  A
N1745      N1746   1.316       .  A
N1745     Mn1775   2.161       .  S
N1746      C1754   1.345       .  A
N1747      N1748   1.335       .  A
N1747      N1749   1.315       .  A
N1747     Mn1753   2.274       .  S
N1748      C1755   1.367       .  A
N1749      N1750   1.338       .  A
N1750      C1755   1.369       .  A
N1751      N1752   1.318       .  A
N1752      C1754   1.349       .  A
Mn1753    Cl1777   2.543   1_655  S
C1754      C1836   1.462       .  S
N1756      N1757   1.330       .  A
N1756      N1762   1.315       .  A
N1757      C1765   1.363       .  A
N1758      N1760   1.312       .  A
N1758      N1759   1.317       .  A
N1759      C1766   1.348       .  A
N1760      N1761   1.317       .  A
N1760     Mn1764   2.166       .  S
N1761      C1766   1.347       .  A
N1762      N1763   1.343       .  A
N1762     Mn1776   2.302       .  S
N1763      C1765   1.374       .  A
Mn1764    Cl1777   2.536   1_655  S
C1766      C1826   1.463       .  S
N1767      N1773   1.318       .  A
N1767     Mn1775   2.128       .  S
N1768      C1778   1.337       .  A
N1769      N1770   1.316       .  A
N1769      N1771   1.318       .  A
N1769     Mn1776   2.142       .  S
N1770      C1779   1.341       .  A
N1771      N1772   1.319       .  A
N1771     Mn1775   2.238       .  S
N1772      C1779   1.355       .  A
N1773     Mn1776   2.256       .  S
N1774      C1778   1.359       .  A
C1778      C1939   1.451       .  S
C1779      C1869   1.453       .  S
N1780      N1781   1.336       .  A
N1780      N1786   1.315       .  A
N1780     Mn1809   2.269       .  S
N1781      C1788   1.364       .  A
N1782      N1784   1.311       .  A
N1782      N1783   1.314       .  A
N1782     Mn1798   2.171       .  S
N1783      C1789   1.347       .  A
N1784      N1785   1.326       .  A
N1784     Mn2457   2.219   1_545  S
N1785      C1789   1.361       .  A
N1786      N1787   1.336       .  A
N1786     Mn2446   2.274       .  S
N1787      C1788   1.368       .  A
C1789      C1856   1.473       .  S
N1790      N1796   1.322       .  A
N1790      N1791   1.316       .  A
N1790     Mn1820   2.200       .  S
N1791      C1799   1.353       .  A
N1792      N1793   1.318       .  A
N1792      N1794   1.322       .  A
N1792     Mn2446   2.163       .  S
N1793      C1800   1.344       .  A
N1794      N1795   1.312       .  A
N1794     Mn2468   2.207       .  S
N1795      C1800   1.346       .  A
N1796      N1797   1.316       .  A
N1796     Mn1798   2.218       .  S
N1797      C1799   1.352       .  A
Mn1798     N2434   2.274   1_545  S
Mn1798     N2440   2.163       .  S
Mn1798    Cl1822   2.550       .  S
C1799      C1829   1.470       .  S
C1800      C1919   1.440       .  S
N1801      N1802   1.316       .  A
N1801      N1807   1.322       .  A
N1801     Mn2457   2.214       .  S
N1802      C1810   1.349       .  A
N1803      N1805   1.319       .  A
N1803      N1804   1.317       .  A
N1803     Mn1821   2.221       .  S
N1804      C1811   1.354       .  A
N1805      N1806   1.314       .  A
N1805     Mn1809   2.176       .  S
N1806      C1811   1.351       .  A
N1807      N1808   1.316   1_565  A
N1807     Mn2469   2.166       .  S
N1808      C1810   1.343   1_545  A
Mn1809     N2432   2.219       .  S
Mn1809     N2449   2.214       .  S
Mn1809    Cl2470   2.561       .  S
C1810      C1909   1.446       .  S
C1811      C1839   1.468       .  S
N1812      N1813   1.329       .  A
N1812      N1818   1.311       .  A
N1812     Mn2468   2.239       .  S
N1813      C1823   1.364       .  A
N1814      N1815   1.332       .  A
N1814      N1816   1.316       .  A
N1814     Mn2469   2.275   1_545  S
N1815      C1824   1.367       .  A
N1816      N1817   1.342       .  A
N1816     Mn1820   2.284       .  S
N1817      C1824   1.369       .  A
N1818      N1819   1.315       .  A
N1818     Mn1821   2.162       .  S
N1819      C1823   1.346       .  A
Mn1820     N2442   2.207       .  S
Mn1820     N2460   2.239       .  S
Mn1820    Cl1822   2.559       .  S
Mn1821     N2455   2.166       .  S
Mn1821     N2462   2.275       .  S
Mn1821    Cl2470   2.547       .  S
Cl1822    Mn2457   2.561   1_545  S
Cl1822    Mn2469   2.547   1_545  S
C1823      C1849   1.481       .  S
C1825      C1826   1.401       .  A
C1825      C1830   1.392       .  A
C1825      H1831   1.081       .  S
C1826      C1827   1.400       .  A
C1827      C1828   1.392       .  A
C1827      H1832   1.082       .  S
C1828      C1829   1.406       .  A
C1828      H1833   1.084       .  S
C1829      C1830   1.404       .  A
C1830      H1834   1.083       .  S
C1835      C1836   1.401       .  A
C1835      C1840   1.390       .  A
C1835      H1841   1.083       .  S
C1836      C1837   1.401       .  A
C1837      C1838   1.392       .  A
C1837      H1842   1.083       .  S
C1838      C1839   1.405       .  A
C1838      H1843   1.083       .  S
C1839      C1840   1.405       .  A
C1840      H1844   1.084       .  S
C1845      C1846   1.403       .  A
C1845      C1850   1.403       .  A
C1845      H1851   1.083       .  S
C1846      C1847   1.409       .  A
C1847      C1848   1.402       .  A
C1847      H1852   1.083       .  S
C1848      C1849   1.400       .  A
C1848      H1853   1.083       .  S
C1849      C1850   1.409       .  A
C1850      H1854   1.083       .  S
C1855      C1856   1.400       .  A
C1855      C1860   1.400       .  A
C1855      H1861   1.083       .  S
C1856      C1857   1.407       .  A
C1857      C1858   1.398       .  A
C1857      H1862   1.084       .  S
C1858      C1859   1.401       .  A
C1858      H1863   1.083       .  S
C1859      C1860   1.407       .  A
C1860      H1864   1.083       .  S
C1865      C1866   1.403       .  A
C1865      C1870   1.390       .  A
C1865      H1871   1.083       .  S
C1866      C1867   1.403       .  A
C1867      C1868   1.393       .  A
C1867      H1872   1.084       .  S
C1868      C1869   1.401       .  A
C1868      H1873   1.083       .  S
C1869      C1870   1.397       .  A
C1870      H1874   1.081       .  S
C1875      C1876   1.396       .  A
C1875      C1880   1.390       .  A
C1875      H1881   1.079       .  S
C1876      C1877   1.401       .  A
C1877      C1878   1.392       .  A
C1877      H1882   1.083       .  S
C1878      C1879   1.402       .  A
C1878      H1883   1.083       .  S
C1879      C1880   1.404       .  A
C1880      H1884   1.084       .  S
C1885      C1886   1.402       .  A
C1885      C1890   1.400       .  A
C1886      C1887   1.408   1_554  A
C1887      C1888   1.389       .  A
C1887      H1892   1.084       .  S
C1888      C1889   1.397   1_556  A
C1888      H1893   1.084       .  S
C1889      C1890   1.406       .  A
C1890      H1894   1.084       .  S
C1895      C1896   1.411       .  A
C1895      C1900   1.388       .  A
C1895      H1901   1.083       .  S
C1896      C1897   1.401       .  A
C1897      C1898   1.403       .  A
C1898      C1899   1.411       .  A
C1898      H1903   1.084       .  S
C1899      C1900   1.393       .  A
C1900      H1904   1.084       .  S
C1905      C1906   1.396       .  A
C1905      C1910   1.387       .  A
C1905      H1911   1.084       .  S
C1906      C2555   1.399       .  A
C1907      C2554   1.399   1_545  A
C1907      C1908   1.390       .  A
C1907      H1912   1.084       .  S
C1908      C1909   1.398   1_545  A
C1908      H1913   1.084       .  S
C1909      C2558   1.399       .  A
C1910      C2557   1.399       .  A
C1910      H1914   1.083       .  S
C1915      C1916   1.399   1_565  A
C1915      C2568   1.389       .  A
C1915      H1921   1.084       .  S
C1916      C1917   1.394       .  A
C1917      C2566   1.385       .  A
C1917      H1922   1.084       .  S
C1918      C2565   1.385       .  A
C1918      C1919   1.400       .  A
C1918      H1923   1.084       .  S
C1919      C1920   1.397       .  A
C1920      C2563   1.389       .  A
C1920      H1924   1.084       .  S
C1925      C1926   1.399       .  A
C1925      C1930   1.390       .  A
C1925      H1931   1.084       .  S
C1927      C1928   1.387       .  A
C1927      H1932   1.083       .  S
C1928      C1929   1.394       .  A
C1928      H1933   1.082       .  S
C1930      H1934   1.083       .  S
C1935      C1940   1.390       .  A
C1935      H1941   1.083       .  S
C1936      C1937   1.401       .  A
C1937      C1938   1.390       .  A
C1937      H1942   1.084       .  S
C1938      H1943   1.083       .  S
C1939      C1940   1.395       .  A
C1940      H1944   1.080       .  S
C1945      C1946   1.539       .  S
C1945      C1951   1.560       .  S
C1945      C1949   1.566       .  S
C1945      C2079   1.584       .  S
C1946      H1953   1.086       .  S
C1946      C1947   1.370       .  D
C1947      C1948   1.562       .  S
C1947      C1989   1.504       .  S
C1948      C1952   1.575       .  S
C1948      C1950   1.580       .  S
C1948      H1954   1.110       .  S
C1949      H1955   1.085       .  S
C1949      C1950   1.387       .  D
C1950      C2034   1.554       .  S
C1951      H1956   1.086       .  S
C1951      C1952   1.379       .  D
C1952      C2112   1.544       .  S
C1957      C1958   1.541       .  S
C1957      C1963   1.533       .  S
C1957      C1961   1.543       .  S
C1957      C1999   1.552       .  S
C1958      H1965   1.086       .  S
C1958      C1959   1.377       .  D
C1959      C1960   1.620       .  S
C1959      C2044   1.570       .  S
C1960      C1964   1.604       .  S
C1960      C1962   1.596       .  S
C1960      H1966   1.110       .  S
C1961      H1967   1.087       .  S
C1961      C1962   1.370       .  D
C1962      C2148   1.555       .  S
C1963      H1968   1.087       .  S
C1963      C1964   1.370       .  D
C1964      C2089   1.547       .  S
N1969      N1970   1.314       .  A
N1969      N1975   1.317       .  A
N1970      C1977   1.348       .  A
N1971      N1972   1.316       .  A
N1971     Mn1987   2.209       .  S
N1973      N1974   1.317       .  A
N1973     Mn1998   2.193       .  S
N1974      C1978   1.354       .  A
N1975      N1976   1.317       .  A
N1976      C1977   1.342       .  A
C1977      C2230   1.438   1_545  S
C1978      C2260   1.461       .  S
N1979      N1985   1.313       .  A
N1979      N2304   1.327       .  A
N1980      N2303   1.327       .  A
N1980      C2312   1.360       .  A
N1981      N1982   1.324       .  A
N1981      N1983   1.314       .  A
N1982      C1989   1.354       .  A
N1983      N1984   1.332       .  A
N1983     Mn2333   2.272       .  S
N1984      C1989   1.363       .  A
N1985      N1986   1.306       .  A
N1985     Mn1987   2.152       .  S
N1986      C1988   1.336       .  A
Mn1987    Cl2011   2.555       .  S
C1988      N2304   1.360       .  A
C1988      C2210   1.470       .  S
N1990      N1991   1.337       .  A
N1990      N1996   1.313       .  A
N1990     Mn2322   2.291   1_554  S
N1991      C1999   1.369       .  A
N1992      N2318   1.312   1_564  A
N1992      N1993   1.305       .  A
N1992     Mn2010   2.152   1_565  S
N1993      C2000   1.337   1_554  A
N1994      N2316   1.312   1_545  A
N1994      N1995   1.330   1_545  A
N1995      C2324   1.363       .  A
N1996      N1997   1.323       .  A
N1997      C1999   1.353       .  A
Mn1998     N2314   2.291       .  S
C2000      N2319   1.363       .  A
C2000      C2220   1.476       .  S
N2001      N2002   1.320       .  A
N2001      N2007   1.318   1_655  A
N2001     Mn2009   2.191       .  S
N2002      C2012   1.356   1_655  A
N2003      N2004   1.314       .  A
N2003      N2005   1.317       .  A
N2004      C2013   1.339       .  A
N2005      N2006   1.317       .  A
N2006      C2013   1.351       .  A
Mn2009     N2307   2.272   1_554  S
C2012      C2250   1.459       .  S
C2013      C2240   1.436       .  S
N2014      N2015   1.306       .  A
N2014      N2020   1.322       .  A
N2014     Mn2367   2.176       .  S
N2015      C2022   1.336       .  A
N2016      N2018   1.322       .  A
N2016      N2017   1.318       .  A
N2016     Mn2032   2.244       .  S
N2017      C2023   1.355       .  A
N2018      N2019   1.315       .  A
N2018     Mn2043   2.159       .  S
N2019      C2023   1.348       .  A
N2020      N2021   1.328       .  A
N2020     Mn2356   2.227       .  S
N2021      C2022   1.360       .  A
C2022      C2213   1.450       .  S
C2023      C2203   1.461       .  S
N2024      N2030   1.312   1_556  A
N2024      N2025   1.327       .  A
N2024     Mn2378   2.224       .  S
N2025      C2033   1.362   1_556  A
N2026      N2027   1.344       .  A
N2026      N2028   1.317       .  A
N2026     Mn2356   2.317       .  S
N2027      C2034   1.377       .  A
N2028      N2029   1.333       .  A
N2028     Mn2054   2.234       .  S
N2029      C2034   1.356       .  A
N2030      N2031   1.317       .  A
N2030     Mn2032   2.187       .  S
N2031      C2033   1.350       .  A
Mn2032     N2344   2.227       .  S
Mn2032     N2350   2.317   1_554  S
Mn2032    Cl2056   2.579       .  S
C2033      C2170   1.484       .  S
N2035      N2036   1.340       .  A
N2035      N2041   1.320       .  A
N2035     Mn2043   2.257       .  S
N2036      C2044   1.361       .  A
N2037      N2039   1.312       .  A
N2037      N2038   1.316       .  A
N2037     Mn2055   2.183       .  S
N2038      C2045   1.350       .  A
N2039      N2040   1.324       .  A
N2039     Mn2367   2.208       .  S
N2040      C2045   1.359       .  A
N2041      N2042   1.341       .  A
N2041     Mn2379   2.324   1_554  S
N2042      C2044   1.377       .  A
Mn2043     N2338   2.176       .  S
Mn2043     N2363   2.208       .  S
Mn2043    Cl2056   2.554       .  S
C2045      C2183   1.475       .  S
N2046      N2047   1.317       .  A
N2046      N2052   1.321       .  A
N2046     Mn2054   2.167       .  S
N2047      C2057   1.349       .  A
N2048      N2049   1.330       .  A
N2048      N2050   1.322       .  A
N2048     Mn2379   2.253       .  S
N2049      C2058   1.364       .  A
N2050      N2051   1.306       .  A
N2050     Mn2378   2.158       .  S
N2051      C2058   1.333       .  A
N2052      N2053   1.318       .  A
N2052     Mn2055   2.240       .  S
N2053      C2057   1.354       .  A
Mn2054     N2348   2.224       .  S
Mn2054     N2374   2.158       .  S
Mn2054    Cl2380   2.553       .  S
Mn2055     N2365   2.324       .  S
Mn2055     N2372   2.253       .  S
Mn2055    Cl2380   2.575       .  S
Cl2056    Mn2378   2.553   1_554  S
Cl2056    Mn2379   2.575   1_554  S
C2057      C2190   1.463       .  S
C2058      C2223   1.456       .  S
N2059      N2060   1.320       .  A
N2059      N2065   1.317       .  A
N2059     Mn2088   2.232       .  S
N2060      C2067   1.356       .  A
N2061      N2063   1.315       .  A
N2061     Mn2077   2.226   1_455  S
N2062      C2068   1.356       .  A
N2063     Mn2088   2.138   1_455  S
N2064      C2068   1.341       .  A
N2065      N2066   1.315       .  A
N2065     Mn2077   2.147       .  S
N2066      C2067   1.342       .  A
C2067      C2200   1.454       .  S
C2068      C2253   1.449       .  S
N2069      N2075   1.312       .  A
N2069      N2070   1.316       .  A
N2069     Mn2099   2.161       .  S
N2070      C2078   1.345       .  A
N2071      N2072   1.335       .  A
N2071      N2073   1.315       .  A
N2071     Mn2077   2.274       .  S
N2072      C2079   1.367       .  A
N2073      N2074   1.338       .  A
N2074      C2079   1.369       .  A
N2075      N2076   1.318       .  A
N2076      C2078   1.349       .  A
Mn2077    Cl2101   2.543   1_655  S
C2078      C2160   1.462       .  S
N2080      N2081   1.330       .  A
N2080      N2086   1.315       .  A
N2081      C2089   1.363       .  A
N2082      N2084   1.312       .  A
N2082      N2083   1.317       .  A
N2083      C2090   1.348       .  A
N2084      N2085   1.317       .  A
N2084     Mn2088   2.166       .  S
N2085      C2090   1.347       .  A
N2086      N2087   1.343       .  A
N2086     Mn2100   2.302       .  S
N2087      C2089   1.374       .  A
Mn2088    Cl2101   2.536   1_655  S
C2090      C2150   1.463       .  S
N2091      N2097   1.318       .  A
N2091     Mn2099   2.128       .  S
N2092      C2102   1.337       .  A
N2093      N2094   1.316       .  A
N2093      N2095   1.318       .  A
N2093     Mn2100   2.142       .  S
N2094      C2103   1.341       .  A
N2095      N2096   1.319       .  A
N2095     Mn2099   2.238       .  S
N2096      C2103   1.355       .  A
N2097     Mn2100   2.256       .  S
N2098      C2102   1.359       .  A
C2102      C2263   1.451       .  S
C2103      C2193   1.453       .  S
N2104      N2105   1.336       .  A
N2104      N2110   1.315       .  A
N2104     Mn2133   2.269       .  S
N2105      C2112   1.364       .  A
N2106      N2108   1.311       .  A
N2106      N2107   1.314       .  A
N2106     Mn2122   2.171       .  S
N2107      C2113   1.347       .  A
N2108      N2109   1.326       .  A
N2109      C2113   1.361       .  A
N2110      N2111   1.336       .  A
N2111      C2112   1.368       .  A
C2113      C2180   1.473       .  S
N2114      N2120   1.322       .  A
N2114      N2115   1.316       .  A
N2114     Mn2144   2.200       .  S
N2115      C2123   1.353       .  A
N2116      N2117   1.318       .  A
N2116      N2118   1.322       .  A
N2117      C2124   1.344       .  A
N2118      N2119   1.312       .  A
N2119      C2124   1.346       .  A
N2120      N2121   1.316       .  A
N2120     Mn2122   2.218       .  S
N2121      C2123   1.352       .  A
Mn2122    Cl2146   2.550       .  S
C2123      C2153   1.470       .  S
C2124      C2243   1.440       .  S
N2125      N2126   1.316       .  A
N2125      N2131   1.322       .  A
N2126      C2134   1.349       .  A
N2127      N2129   1.319       .  A
N2127      N2128   1.317       .  A
N2127     Mn2145   2.221       .  S
N2128      C2135   1.354       .  A
N2129      N2130   1.314       .  A
N2129     Mn2133   2.176       .  S
N2130      C2135   1.351       .  A
N2131      N2132   1.316       .  A
N2132      C2134   1.343       .  A
C2134      C2233   1.446       .  S
C2135      C2163   1.468       .  S
N2136      N2137   1.329       .  A
N2136      N2142   1.311   1_545  A
N2137      C2147   1.364   1_545  A
N2138      N2139   1.332       .  A
N2138      N2140   1.316       .  A
N2139      C2148   1.367       .  A
N2140      N2141   1.342       .  A
N2140     Mn2144   2.284       .  S
N2141      C2148   1.369       .  A
N2142      N2143   1.315       .  A
N2142     Mn2145   2.162       .  S
N2143      C2147   1.346       .  A
Mn2144    Cl2146   2.559       .  S
C2147      C2173   1.481       .  S
C2149      C2150   1.401       .  A
C2149      C2154   1.392       .  A
C2149      H2155   1.081       .  S
C2150      C2151   1.400       .  A
C2151      C2152   1.392       .  A
C2151      H2156   1.082       .  S
C2152      C2153   1.406       .  A
C2152      H2157   1.084       .  S
C2153      C2154   1.404       .  A
C2154      H2158   1.083       .  S
C2159      C2160   1.401       .  A
C2159      C2164   1.390       .  A
C2159      H2165   1.083       .  S
C2160      C2161   1.401       .  A
C2161      C2162   1.392       .  A
C2161      H2166   1.083       .  S
C2162      C2163   1.405       .  A
C2162      H2167   1.083       .  S
C2163      C2164   1.405       .  A
C2164      H2168   1.084       .  S
C2169      C2170   1.403       .  A
C2169      C2174   1.403       .  A
C2169      H2175   1.083       .  S
C2170      C2171   1.409       .  A
C2171      C2172   1.402       .  A
C2171      H2176   1.083       .  S
C2172      C2173   1.400       .  A
C2172      H2177   1.083       .  S
C2173      C2174   1.409       .  A
C2174      H2178   1.083       .  S
C2179      C2180   1.400       .  A
C2179      C2184   1.400       .  A
C2179      H2185   1.083       .  S
C2180      C2181   1.407       .  A
C2181      C2182   1.398       .  A
C2181      H2186   1.084       .  S
C2182      C2183   1.401       .  A
C2182      H2187   1.083       .  S
C2183      C2184   1.407       .  A
C2184      H2188   1.083       .  S
C2189      C2190   1.403       .  A
C2189      C2194   1.390       .  A
C2189      H2195   1.083       .  S
C2190      C2191   1.403       .  A
C2191      C2192   1.393       .  A
C2191      H2196   1.084       .  S
C2192      C2193   1.401       .  A
C2192      H2197   1.083       .  S
C2193      C2194   1.397       .  A
C2194      H2198   1.081       .  S
C2199      C2200   1.396       .  A
C2199      C2204   1.390       .  A
C2199      H2205   1.079       .  S
C2200      C2201   1.401       .  A
C2201      C2202   1.392       .  A
C2201      H2206   1.083       .  S
C2202      C2203   1.402       .  A
C2202      H2207   1.083       .  S
C2203      C2204   1.404       .  A
C2204      H2208   1.084       .  S
C2209      C2210   1.402       .  A
C2209      C2214   1.399       .  A
C2209      H2539   1.083       .  S
C2210      C2211   1.408       .  A
C2211      C2212   1.389       .  A
C2211      H2216   1.084       .  S
C2212      C2213   1.397       .  A
C2212      H2217   1.084       .  S
C2213      C2214   1.406       .  A
C2214      H2218   1.084       .  S
H2215      C2533   1.083       .  S
C2219      C2220   1.411   1_554  A
C2219      C2224   1.388       .  A
C2219      H2225   1.083       .  S
C2220      C2221   1.401       .  A
C2221      C2222   1.403       .  A
C2221      H2550   1.083       .  S
C2222      C2223   1.411       .  A
C2222      H2227   1.084       .  S
C2223      C2224   1.393   1_556  A
C2224      H2228   1.084       .  S
H2226      C2545   1.083       .  S
C2229      C2230   1.396       .  A
C2229      C2234   1.387       .  A
C2229      H2235   1.084       .  S
C2231      C2232   1.390       .  A
C2231      H2236   1.084       .  S
C2232      C2233   1.398       .  A
C2232      H2237   1.084       .  S
C2234      H2238   1.083       .  S
C2239      C2240   1.399       .  A
C2239      H2245   1.084       .  S
C2240      C2241   1.394       .  A
C2241      H2246   1.084       .  S
C2242      C2243   1.400       .  A
C2242      H2247   1.084       .  S
C2243      C2244   1.397   1_545  A
C2244      H2248   1.084       .  S
C2249      C2250   1.399       .  A
C2249      C2254   1.390       .  A
C2249      H2255   1.084       .  S
C2251      C2252   1.387       .  A
C2251      H2256   1.083       .  S
C2252      C2253   1.394       .  A
C2252      H2257   1.082       .  S
C2254      H2258   1.083       .  S
C2259      C2264   1.390       .  A
C2259      H2265   1.083       .  S
C2260      C2261   1.401       .  A
C2261      C2262   1.390       .  A
C2261      H2266   1.084       .  S
C2262      H2267   1.083       .  S
C2263      C2264   1.395       .  A
C2264      H2268   1.080       .  S
C2269      C2270   1.539       .  S
C2269      C2275   1.560       .  S
C2269      C2273   1.566       .  S
C2269      C2403   1.584       .  S
C2270      H2277   1.086       .  S
C2270      C2271   1.370       .  D
C2271      C2272   1.562       .  S
C2271      C2313   1.504       .  S
C2272      C2276   1.575       .  S
C2272      C2274   1.580       .  S
C2272      H2278   1.110       .  S
C2273      H2279   1.085       .  S
C2273      C2274   1.387       .  D
C2274      C2358   1.554       .  S
C2275      H2280   1.086       .  S
C2275      C2276   1.379       .  D
C2276      C2436   1.544       .  S
C2281      C2282   1.541       .  S
C2281      C2287   1.533       .  S
C2281      C2285   1.543       .  S
C2281      C2323   1.552       .  S
C2282      H2289   1.086       .  S
C2282      C2283   1.377       .  D
C2283      C2284   1.620       .  S
C2283      C2368   1.570       .  S
C2284      C2288   1.604       .  S
C2284      C2286   1.596       .  S
C2284      H2290   1.110       .  S
C2285      H2291   1.087       .  S
C2285      C2286   1.370       .  D
C2286      C2472   1.555       .  S
C2287      H2292   1.087       .  S
C2287      C2288   1.370       .  D
C2288      C2413   1.547       .  S
N2293      N2294   1.314       .  A
N2293      N2299   1.317       .  A
N2294      C2301   1.348       .  A
N2295      N2296   1.316       .  A
N2295     Mn2311   2.209       .  S
N2297      N2298   1.317       .  A
N2297     Mn2322   2.193       .  S
N2298      C2302   1.354       .  A
N2299      N2300   1.317       .  A
N2300      C2301   1.342       .  A
C2301      C2554   1.438   1_545  S
C2302      C2584   1.461       .  S
N2303      N2309   1.313   1_554  A
N2305      N2306   1.324       .  A
N2305      N2307   1.314       .  A
N2306      C2313   1.354       .  A
N2307      N2308   1.332       .  A
N2308      C2313   1.363       .  A
N2309      N2310   1.306       .  A
N2309     Mn2311   2.152       .  S
N2310      C2312   1.336   1_556  A
Mn2311    Cl2335   2.555       .  S
C2312      C2534   1.470       .  S
N2314      N2315   1.337       .  A
N2314      N2320   1.313       .  A
N2315      C2323   1.369       .  A
N2316      N2317   1.305       .  A
N2316     Mn2334   2.152   1_565  S
N2317      C2324   1.337       .  A
N2318      N2319   1.330   1_545  A
N2320      N2321   1.323       .  A
N2321      C2323   1.353       .  A
C2324      C2544   1.476       .  S
N2325      N2326   1.320       .  A
N2325      N2331   1.318   1_655  A
N2325     Mn2333   2.191       .  S
N2326      C2336   1.356   1_655  A
N2327      N2328   1.314       .  A
N2327      N2329   1.317       .  A
N2328      C2337   1.339       .  A
N2329      N2330   1.317       .  A
N2330      C2337   1.351       .  A
C2336      C2574   1.459       .  S
C2337      C2564   1.436       .  S
N2338      N2339   1.306       .  A
N2338      N2344   1.322       .  A
N2339      C2346   1.336       .  A
N2340      N2342   1.322       .  A
N2340      N2341   1.318       .  A
N2340     Mn2356   2.244       .  S
N2341      C2347   1.355       .  A
N2342      N2343   1.315       .  A
N2342     Mn2367   2.159       .  S
N2343      C2347   1.348       .  A
N2344      N2345   1.328       .  A
N2345      C2346   1.360       .  A
C2346      C2537   1.450       .  S
C2347      C2527   1.461       .  S
N2348      N2354   1.312       .  A
N2348      N2349   1.327       .  A
N2349      C2357   1.362       .  A
N2350      N2351   1.344       .  A
N2350      N2352   1.317       .  A
N2351      C2358   1.377       .  A
N2352      N2353   1.333       .  A
N2352     Mn2378   2.234       .  S
N2353      C2358   1.356       .  A
N2354      N2355   1.317       .  A
N2354     Mn2356   2.187       .  S
N2355      C2357   1.350       .  A
Mn2356    Cl2380   2.579       .  S
C2357      C2494   1.484       .  S
N2359      N2360   1.340       .  A
N2359      N2365   1.320       .  A
N2359     Mn2367   2.257       .  S
N2360      C2368   1.361       .  A
N2361      N2363   1.312   1_556  A
N2361      N2362   1.316       .  A
N2361     Mn2379   2.183       .  S
N2362      C2369   1.350       .  A
N2363      N2364   1.324       .  A
N2364      C2369   1.359   1_554  A
N2365      N2366   1.341       .  A
N2366      C2368   1.377       .  A
Mn2367    Cl2380   2.554       .  S
C2369      C2507   1.475       .  S
N2370      N2371   1.317       .  A
N2370      N2376   1.321       .  A
N2370     Mn2378   2.167       .  S
N2371      C2381   1.349       .  A
N2372      N2373   1.330       .  A
N2372      N2374   1.322       .  A
N2373      C2382   1.364       .  A
N2374      N2375   1.306       .  A
N2375      C2382   1.333       .  A
N2376      N2377   1.318       .  A
N2376     Mn2379   2.240       .  S
N2377      C2381   1.354       .  A
C2381      C2514   1.463       .  S
C2382      C2547   1.456       .  S
N2383      N2384   1.320       .  A
N2383      N2389   1.317       .  A
N2383     Mn2412   2.232       .  S
N2384      C2391   1.356       .  A
N2385      N2387   1.315       .  A
N2385     Mn2401   2.226   1_455  S
N2386      C2392   1.356       .  A
N2387     Mn2412   2.138   1_455  S
N2388      C2392   1.341       .  A
N2389      N2390   1.315       .  A
N2389     Mn2401   2.146       .  S
N2390      C2391   1.342       .  A
C2391      C2524   1.454       .  S
C2392      C2577   1.449       .  S
N2393      N2399   1.312       .  A
N2393      N2394   1.316       .  A
N2393     Mn2423   2.161       .  S
N2394      C2402   1.345       .  A
N2395      N2396   1.335       .  A
N2395      N2397   1.315       .  A
N2395     Mn2401   2.274       .  S
N2396      C2403   1.367       .  A
N2397      N2398   1.338       .  A
N2398      C2403   1.369       .  A
N2399      N2400   1.318       .  A
N2400      C2402   1.349       .  A
Mn2401    Cl2425   2.543   1_655  S
C2402      C2484   1.462       .  S
N2404      N2405   1.330       .  A
N2404      N2410   1.315       .  A
N2405      C2413   1.363       .  A
N2406      N2408   1.312       .  A
N2406      N2407   1.317       .  A
N2407      C2414   1.348       .  A
N2408      N2409   1.317       .  A
N2408     Mn2412   2.166       .  S
N2409      C2414   1.347       .  A
N2410      N2411   1.343       .  A
N2410     Mn2424   2.302       .  S
N2411      C2413   1.374       .  A
Mn2412    Cl2425   2.536   1_655  S
C2414      C2474   1.463       .  S
N2415      N2421   1.318       .  A
N2415     Mn2423   2.128       .  S
N2416      C2426   1.337       .  A
N2417      N2418   1.316       .  A
N2417      N2419   1.318       .  A
N2417     Mn2424   2.142       .  S
N2418      C2427   1.341       .  A
N2419      N2420   1.319       .  A
N2419     Mn2423   2.238       .  S
N2420      C2427   1.355       .  A
N2421     Mn2424   2.256       .  S
N2422      C2426   1.359       .  A
C2426      C2587   1.451       .  S
C2427      C2517   1.453       .  S
N2428      N2429   1.336       .  A
N2428      N2434   1.315       .  A
N2428     Mn2457   2.269       .  S
N2429      C2436   1.364       .  A
N2430      N2432   1.311       .  A
N2430      N2431   1.314       .  A
N2430     Mn2446   2.171       .  S
N2431      C2437   1.347       .  A
N2432      N2433   1.326       .  A
N2433      C2437   1.361       .  A
N2434      N2435   1.336       .  A
N2435      C2436   1.368       .  A
C2437      C2504   1.473       .  S
N2438      N2444   1.322       .  A
N2438      N2439   1.316       .  A
N2438     Mn2468   2.200       .  S
N2439      C2447   1.353       .  A
N2440      N2441   1.318       .  A
N2440      N2442   1.322       .  A
N2441      C2448   1.344       .  A
N2442      N2443   1.312       .  A
N2443      C2448   1.346       .  A
N2444      N2445   1.316       .  A
N2444     Mn2446   2.218       .  S
N2445      C2447   1.352       .  A
Mn2446    Cl2470   2.550       .  S
C2447      C2477   1.470       .  S
C2448      C2567   1.440       .  S
N2449      N2450   1.316       .  A
N2449      N2455   1.322       .  A
N2450      C2458   1.349       .  A
N2451      N2453   1.319       .  A
N2451      N2452   1.317       .  A
N2451     Mn2469   2.221       .  S
N2452      C2459   1.354       .  A
N2453      N2454   1.314       .  A
N2453     Mn2457   2.176       .  S
N2454      C2459   1.351       .  A
N2455      N2456   1.316       .  A
N2456      C2458   1.343       .  A
C2458      C2557   1.446       .  S
C2459      C2487   1.468       .  S
N2460      N2461   1.329       .  A
N2460      N2466   1.311   1_545  A
N2461      C2471   1.364   1_545  A
N2462      N2463   1.332       .  A
N2462      N2464   1.316       .  A
N2463      C2472   1.367       .  A
N2464      N2465   1.342       .  A
N2464     Mn2468   2.284       .  S
N2465      C2472   1.369       .  A
N2466      N2467   1.315       .  A
N2466     Mn2469   2.162       .  S
N2467      C2471   1.346       .  A
Mn2468    Cl2470   2.559       .  S
C2471      C2497   1.481       .  S
C2473      C2474   1.401       .  A
C2473      C2478   1.392       .  A
C2473      H2479   1.081       .  S
C2474      C2475   1.400       .  A
C2475      C2476   1.392       .  A
C2475      H2480   1.082       .  S
C2476      C2477   1.406       .  A
C2476      H2481   1.084       .  S
C2477      C2478   1.404       .  A
C2478      H2482   1.083       .  S
C2483      C2484   1.401       .  A
C2483      C2488   1.390       .  A
C2483      H2489   1.083       .  S
C2484      C2485   1.401       .  A
C2485      C2486   1.392       .  A
C2485      H2490   1.083       .  S
C2486      C2487   1.405       .  A
C2486      H2491   1.083       .  S
C2487      C2488   1.405       .  A
C2488      H2492   1.084       .  S
C2493      C2494   1.403       .  A
C2493      C2498   1.403       .  A
C2493      H2499   1.083       .  S
C2494      C2495   1.409       .  A
C2495      C2496   1.402       .  A
C2495      H2500   1.083       .  S
C2496      C2497   1.400       .  A
C2496      H2501   1.083       .  S
C2497      C2498   1.409       .  A
C2498      H2502   1.083       .  S
C2503      C2504   1.400       .  A
C2503      C2508   1.400       .  A
C2503      H2509   1.083       .  S
C2504      C2505   1.407       .  A
C2505      C2506   1.398       .  A
C2505      H2510   1.084       .  S
C2506      C2507   1.401       .  A
C2506      H2511   1.083       .  S
C2507      C2508   1.407       .  A
C2508      H2512   1.083       .  S
C2513      C2514   1.403       .  A
C2513      C2518   1.390       .  A
C2513      H2519   1.083       .  S
C2514      C2515   1.403       .  A
C2515      C2516   1.393       .  A
C2515      H2520   1.084       .  S
C2516      C2517   1.401       .  A
C2516      H2521   1.083       .  S
C2517      C2518   1.397       .  A
C2518      H2522   1.081       .  S
C2523      C2524   1.396       .  A
C2523      C2528   1.390       .  A
C2523      H2529   1.079       .  S
C2524      C2525   1.401       .  A
C2525      C2526   1.392       .  A
C2525      H2530   1.083       .  S
C2526      C2527   1.402       .  A
C2526      H2531   1.083       .  S
C2527      C2528   1.404       .  A
C2528      H2532   1.084       .  S
C2533      C2534   1.402       .  A
C2533      C2538   1.399       .  A
C2534      C2535   1.408   1_554  A
C2535      C2536   1.389       .  A
C2535      H2540   1.084       .  S
C2536      C2537   1.397   1_556  A
C2536      H2541   1.084       .  S
C2537      C2538   1.406       .  A
C2538      H2542   1.084       .  S
C2543      C2544   1.411       .  A
C2543      C2548   1.388       .  A
C2543      H2549   1.083       .  S
C2544      C2545   1.401       .  A
C2545      C2546   1.403       .  A
C2546      C2547   1.411       .  A
C2546      H2551   1.084       .  S
C2547      C2548   1.393       .  A
C2548      H2552   1.084       .  S
C2553      C2554   1.396       .  A
C2553      C2558   1.387       .  A
C2553      H2559   1.084       .  S
C2555      C2556   1.390       .  A
C2555      H2560   1.084       .  S
C2556      C2557   1.398       .  A
C2556      H2561   1.084       .  S
C2558      H2562   1.083       .  S
C2563      C2564   1.399       .  A
C2563      H2569   1.084       .  S
C2564      C2565   1.394       .  A
C2565      H2570   1.084       .  S
C2566      C2567   1.400       .  A
C2566      H2571   1.084       .  S
C2567      C2568   1.397   1_545  A
C2568      H2572   1.084       .  S
C2573      C2574   1.399       .  A
C2573      C2578   1.390       .  A
C2573      H2579   1.084       .  S
C2575      C2576   1.387       .  A
C2575      H2580   1.083       .  S
C2576      C2577   1.394       .  A
C2576      H2581   1.082       .  S
C2578      H2582   1.083       .  S
C2583      C2588   1.390       .  A
C2583      H2589   1.083       .  S
C2584      C2585   1.401       .  A
C2585      C2586   1.390       .  A
C2585      H2590   1.084       .  S
C2586      H2591   1.083       .  S
C2587      C2588   1.395       .  A
C2588      H2592   1.080       .  S
