geometry optimzed in LAMMPS
_audit_creation_date              2020-12-01 
_audit_creation_method            'lammps2cif' 
_symmetry_space_group_name_H-M    'P1' 
_symmetry_Int_Tables_number       1 
_symmetry_cell_setting            triclinic 
loop_ 
_symmetry_equiv_pos_as_xyz 
  x,y,z 
_cell_length_a                    35.43595977 
_cell_length_b                    36.93405535746775 
_cell_length_c                    35.53936878907016 
_cell_angle_alpha                 90.62414182002867 
_cell_angle_beta                  90.01961074008356 
_cell_angle_gamma                 90.17127832687584 
loop_ 
_atom_site_label 
_atom_site_type_symbol 
_atom_site_fract_x 
_atom_site_fract_y 
_atom_site_fract_z 
_atom_site_charge 
C1          C  0.07676191  0.42154896  0.08553870     0.41800
N2          N  0.06383500  0.46460334  0.04766987     0.00700
C3          C  0.40127889  0.06745389  0.04078063    -0.07200
H4          H  0.37826209  0.42895603  0.02283065     0.06200
C5          C  0.45820722  0.43452048  0.40311942    -0.07600
Co6        Co  0.49248773  0.50262456  0.06853345     0.74200
N7          N  0.42721790  0.46196977  0.03527048    -0.26700
Co8        Co  0.42953162  0.00123687  0.49354081     0.74100
C9          C  0.42237135  0.41744944  0.41356206     0.41900
N10         N  0.04700554  0.46368602  0.43582745     0.00300
N11         N  0.43428826  0.46155287  0.45173516     0.00400
N12         N  0.44227985  0.06645936  0.08957644    -0.47600
H13         H  0.02223214  0.43128242  0.11947304     0.06200
N14         N  0.45124103  0.46252771  0.06365241     0.00700
N15         N  0.43328574  0.04048987  0.45193632     0.00400
C16         C  0.42036262  0.08328595  0.41355619     0.42000
N17         N  0.07126804  0.46442460  0.46400508    -0.26200
C18         C  0.03924010  0.06930546  0.09806970    -0.07100
N19         N  0.08975288  0.44011776  0.05566148    -0.47300
N20         N  0.40745585  0.06498588  0.44370623    -0.47500
C21         C  0.07471390  0.08691860  0.08741312     0.41800
N22         N  0.45028551  0.04122717  0.06417017     0.00700
N23         N  0.06923970  0.04330194  0.46479348    -0.26200
N24         N  0.03500948  0.46394204  0.07114015    -0.26700
N25         N  0.04549532  0.04247976  0.43619000     0.00300
H26         H  0.11725667  0.07712303  0.47810751     0.06200
H27         H  0.47481455  0.07311960  0.37971341     0.06200
N28         N  0.42648601  0.04089181  0.03558669    -0.26800
N29         N  0.46305449  0.46162896  0.42817391    -0.26400
N30         N  0.06240669  0.04354129  0.04832966     0.00700
C31         C  0.41328698  0.41890931  0.07637556     0.42100
C32         C  0.09735065  0.43864364  0.45797488    -0.07600
N33         N  0.46203104  0.04085950  0.42839628    -0.26400
H34         H  0.47645563  0.42866865  0.37944808     0.06200
N35         N  0.44357974  0.43765206  0.08903591    -0.47600
H36         H  0.12161560  0.43355170  0.47558087     0.06200
C37         C  0.08265934  0.08686170  0.42424178     0.41900
C38         C  0.04046660  0.43743055  0.09597822    -0.07100
Co39       Co  0.06744596  0.50398642  0.00629705     0.73800
N40         N  0.05528129  0.43880684  0.41017196    -0.47300
C41         C  0.41194555  0.08439216  0.07658769     0.42200
N42         N  0.08754822  0.06899037  0.05665084    -0.47300
Co43       Co  0.00451709  0.00211230  0.43142443     0.73900
C44         C  0.45660528  0.06721303  0.40328901    -0.07600
C45         C  0.40221202  0.43513165  0.04067647    -0.07200
N46         N  0.03398914  0.04290663  0.07226634    -0.26700
N47         N  0.40909944  0.43606727  0.44365643    -0.47500
H48         H  0.37753650  0.07308906  0.02265133     0.06200
C49         C  0.09367793  0.07061017  0.45990040    -0.07600
Cl50       Cl  0.99848974  0.00244620  0.99995395    -0.50600
C51         C  0.08650538  0.42159156  0.42221393     0.41900
H52         H  0.02126093  0.07453876  0.12209056     0.06100
N53         N  0.05289850  0.06766770  0.41103054    -0.47300
C54         C  0.10545906  0.11282836  0.40105723     0.85800
C55         C  0.14835492  0.10856335  0.40558331    -0.54400
C56         C  0.16911659  0.13232334  0.38475116     0.08700
C57         C  0.14476795  0.15787425  0.36099872     0.19700
C58         C  0.09745587  0.15261046  0.41051832    -0.55100
C59         C  0.11808025  0.17615964  0.38953646     0.08800
C60         C  0.09860206  0.10920375  0.35842185    -0.54700
C61         C  0.11957164  0.13249042  0.33726577     0.09400
H62         H  0.16121475  0.08848156  0.42356963     0.13900
H63         H  0.16127436  0.17709876  0.34370784    -0.00300
H64         H  0.07696639  0.16140954  0.43139629     0.14200
H65         H  0.07899511  0.08983883  0.34602860     0.14000
C66         C  0.10832592  0.39505503  0.39824000     0.85800
C67         C  0.10047640  0.39978450  0.35607543    -0.54400
C68         C  0.11897380  0.37577574  0.33366521     0.08700
C69         C  0.14341792  0.34867047  0.35526019     0.19700
C70         C  0.09834341  0.35555045  0.40656346    -0.55100
C71         C  0.11659620  0.33132582  0.38388205     0.08800
C72         C  0.15173108  0.39696830  0.40161056    -0.54700
C73         C  0.17056173  0.37233731  0.37914226     0.09400
H74         H  0.08267066  0.42088539  0.34464470     0.13900
H75         H  0.15706210  0.32797087  0.33720135    -0.00300
H76         H  0.07875080  0.34743226  0.42842845     0.14200
H77         H  0.16610290  0.41620037  0.41997419     0.14000
C78         C  0.10002465  0.39586322  0.10847562     0.85800
C79         C  0.14288208  0.39918560  0.10217229    -0.54400
C80         C  0.16389498  0.37619398  0.12358745     0.08700
C81         C  0.13983677  0.35124405  0.14837863     0.19700
C82         C  0.09074110  0.35588541  0.10057445    -0.55100
C83         C  0.11169975  0.33245595  0.12135524     0.08800
C84         C  0.09497867  0.40095680  0.15113031    -0.54700
C85         C  0.11567491  0.37741809  0.17186982     0.09400
H86         H  0.15550107  0.41829115  0.08284878     0.13900
H87         H  0.15648254  0.33221942  0.16574587    -0.00300
H88         H  0.07014322  0.34694705  0.07981125     0.14200
H89         H  0.07689361  0.42131121  0.16395656     0.14000
C90         C  0.09846338  0.11293534  0.11062879     0.85800
C91         C  0.09247140  0.11054249  0.15340560    -0.54400
C92         C  0.11425666  0.13420366  0.17395570     0.08700
C93         C  0.14018361  0.15790600  0.14962466     0.19700
C94         C  0.09165737  0.15287235  0.10122021    -0.55100
C95         C  0.11375356  0.17639275  0.12143067     0.08800
C96         C  0.14116104  0.10734796  0.10536561    -0.54700
C97         C  0.16301654  0.13062737  0.12606912     0.09400
H98         H  0.07330708  0.09141878  0.16641049     0.13900
H99         H  0.15795712  0.17741318  0.16566201    -0.00300
H100        H  0.07138795  0.16175086  0.08035801     0.14200
H101        H  0.15321034  0.08664267  0.08710435     0.14000
C102        C  0.39675523  0.10862368  0.39034662     0.85800
C103        C  0.40012957  0.10266052  0.34749152    -0.54400
C104        C  0.37812706  0.12542190  0.32669656     0.08700
C105        C  0.35537483  0.15235376  0.35098872     0.19700
C106        C  0.40653809  0.14869701  0.39665680    -0.55100
C107        C  0.38483541  0.17159522  0.37605093     0.08800
C108        C  0.35428521  0.10570427  0.39857870    -0.54700
C109        C  0.33250277  0.12824481  0.37763127     0.09400
H110        H  0.41956708  0.08340956  0.33503850     0.13900
H111        H  0.33769160  0.17116154  0.33441587    -0.00300
H112        H  0.42840416  0.15814604  0.41583500     0.14200
H113        H  0.34240111  0.08734894  0.41910586     0.14000
C114        C  0.38934047  0.11091971  0.09947229     0.85800
C115        C  0.34649848  0.10595598  0.09545553    -0.54400
C116        C  0.32594199  0.13050675  0.11572310     0.08700
C117        C  0.35025566  0.15717931  0.13897155     0.19700
C118        C  0.39719319  0.15032135  0.08914006    -0.55100
C119        C  0.37670919  0.17454732  0.10974616     0.08800
C120        C  0.39649066  0.10890356  0.14207797    -0.54700
C121        C  0.37576560  0.13283879  0.16309943     0.09400
H122        H  0.33367077  0.08406830  0.07931145     0.13900
H123        H  0.33330518  0.17698465  0.15545816    -0.00300
H124        H  0.41744759  0.15841540  0.06786656     0.14200
H125        H  0.41538481  0.08938664  0.15471968     0.14000
C126        C  0.39083296  0.39310975  0.10018515     0.85800
C127        C  0.39944323  0.39691088  0.14248993    -0.54400
C128        C  0.37973557  0.37340843  0.16429693     0.08700
C129        C  0.35298201  0.34843774  0.14208327     0.19700
C130        C  0.39801394  0.35311289  0.09053432    -0.55100
C131        C  0.37837847  0.32977461  0.11276737     0.08800
C132        C  0.34778118  0.39766567  0.09745039    -0.54700
C133        C  0.32775543  0.37407238  0.11926636     0.09400
H134        H  0.41871378  0.41687101  0.15441792     0.13900
H135        H  0.33726519  0.32942521  0.16035573    -0.00300
H136        H  0.41727123  0.34406213  0.06862778     0.14200
H137        H  0.33432398  0.41763436  0.07975686     0.14000
C138        C  0.39935744  0.39080458  0.39042714     0.85800
C139        C  0.35669986  0.39136870  0.39914646    -0.54400
C140        C  0.33560464  0.36719399  0.37835741     0.08700
C141        C  0.35976510  0.34541312  0.34990321     0.19700
C142        C  0.41111262  0.35107575  0.39526517    -0.55100
C143        C  0.39019678  0.32737220  0.37401764     0.08800
C144        C  0.40177247  0.39763831  0.34802517    -0.54700
C145        C  0.38107614  0.37402024  0.32677988     0.09400
H146        H  0.34433801  0.41050092  0.41888632     0.13900
H147        H  0.34398603  0.32547182  0.33239465    -0.00300
H148        H  0.43293972  0.34241053  0.41460872     0.14200
H149        H  0.41836061  0.41925749  0.33570766     0.14000
C150        C  0.34840898  0.38237432  0.22540052    -0.27000
C151        C  0.38155908  0.37381500  0.20583654    -0.15100
C152        C  0.41511623  0.36682651  0.22623708     0.35600
C153        C  0.41397311  0.36740502  0.26566465    -0.26400
C154        C  0.38060714  0.37548898  0.28518357    -0.15700
C155        C  0.34793241  0.38500798  0.26470969     0.36600
N156        N  0.31460743  0.39919452  0.28250338    -0.89900
H157        H  0.32301712  0.38886861  0.20984654     0.17800
H158        H  0.43940471  0.36122103  0.28127158     0.17800
N159        N  0.45055182  0.35868524  0.20832099    -0.89000
H160        H  0.30915665  0.42450325  0.27080489     0.35100
H161        H  0.31946112  0.40457744  0.31094987     0.40200
H162        H  0.44813715  0.35721046  0.17912940     0.39800
H163        H  0.45890590  0.33295788  0.21697783     0.34700
C164        C  0.40088912  0.23225751  0.13461115    -0.27000
C165        C  0.38116783  0.21405156  0.10610648    -0.15100
C166        C  0.36437869  0.23407965  0.07678122     0.35600
C167        C  0.36500857  0.27201811  0.07888065    -0.26400
C168        C  0.38162810  0.29007390  0.10957497    -0.15700
C169        C  0.40035776  0.27007702  0.13738251     0.36600
N170        N  0.41865196  0.28814601  0.16835926    -0.89900
H171        H  0.41610569  0.21673878  0.15525237     0.17800
H172        H  0.35155275  0.28748966  0.05690848     0.17800
N173        N  0.34603614  0.21712491  0.04508040    -0.89000
H174        H  0.43327570  0.26958788  0.18487198     0.35100
H175        H  0.39744589  0.29879021  0.18557359     0.40200
H176        H  0.34964507  0.18915503  0.04538065     0.39800
H177        H  0.35977056  0.22592492  0.02078757     0.34700
C178        C  0.37852877  0.16001696  0.26718346    -0.27000
C179        C  0.37738721  0.12617605  0.28475261    -0.15100
C180        C  0.37325807  0.09467593  0.26194758     0.35600
C181        C  0.37278473  0.09774194  0.22268848    -0.26400
C182        C  0.37514198  0.13159213  0.20510285    -0.15700
C183        C  0.37684701  0.16303375  0.22788453     0.36600
N184        N  0.37749389  0.19818978  0.21153988    -0.89900
H185        H  0.38099324  0.18452475  0.28406277     0.17800
H186        H  0.36977087  0.07334060  0.20572142     0.17800
N187        N  0.36722156  0.05950640  0.27748493    -0.89000
H188        H  0.40180405  0.21157985  0.22101977     0.35100
H189        H  0.35416271  0.21257714  0.22162970     0.40200
H190        H  0.34482999  0.06092890  0.29656387     0.39800
H191        H  0.39152631  0.05114027  0.29136699     0.34700
C192        C  0.36713410  0.26998238  0.40097510    -0.27000
C193        C  0.39263692  0.28756784  0.37716202    -0.15100
C194        C  0.41732153  0.26699894  0.35441614     0.37400
C195        C  0.41506489  0.22890545  0.35505966    -0.26400
C196        C  0.38874248  0.21141558  0.37814385    -0.15700
C197        C  0.36530915  0.23200102  0.40207303     0.36600
N198        N  0.33943046  0.21420315  0.42696439    -0.89900
H199        H  0.34822941  0.28601926  0.41833984     0.17800
H200        H  0.43323783  0.21281214  0.33698856     0.17800
N201        N  0.44412278  0.28484884  0.33054772    -0.89000
H202        H  0.32397750  0.23322517  0.44251941     0.35100
H203        H  0.35535221  0.19955834  0.44630773     0.40200
H204        H  0.42891606  0.29886944  0.31018170     0.39800
H205        H  0.46059299  0.26581336  0.31609510     0.34700
C206        C  0.22199716  0.13253142  0.08883289    -0.27000
C207        C  0.20479606  0.13023442  0.12423914    -0.15100
C208        C  0.22770211  0.12697922  0.15664836     0.35600
C209        C  0.26702012  0.12719055  0.15296113    -0.26400
C210        C  0.28418952  0.12983419  0.11755773    -0.15700
C211        C  0.26122303  0.13225725  0.08508588     0.36600
N212        N  0.27666662  0.13585467  0.04809786    -0.89900
H213        H  0.20472032  0.13501877  0.06381477     0.17800
H214        H  0.28435130  0.12471102  0.17794806     0.17800
N215        N  0.21207355  0.12169645  0.19334791    -0.89000
H216        H  0.29228535  0.11280334  0.04130243     0.35100
H217        H  0.29437891  0.15842369  0.04795548     0.40200
H218        H  0.19374165  0.09948190  0.19223693     0.39800
H219        H  0.19701133  0.14470471  0.20140101     0.34700
C220        C  0.14090253  0.27407737  0.10315749    -0.27000
C221        C  0.10936763  0.29255251  0.11713869    -0.15100
C222        C  0.07747844  0.27265521  0.12889990     0.35600
C223        C  0.07913094  0.23453670  0.12909685    -0.26400
C224        C  0.11182671  0.21622532  0.11748113    -0.15700
C225        C  0.14262268  0.23630596  0.10345936     0.36600
N226        N  0.17583736  0.21910777  0.08902488    -0.89900
H227        H  0.16446353  0.28913870  0.09195883     0.17800
H228        H  0.05528283  0.21906069  0.13931191     0.17800
N229        N  0.04414750  0.29108661  0.14169907    -0.89000
H230        H  0.16781958  0.20073527  0.06789015     0.35100
H231        H  0.18868942  0.20493067  0.11076319     0.40200
H232        H  0.03250952  0.30440526  0.11866605     0.39800
H233        H  0.02380344  0.27247615  0.15057407     0.34700
C234        C  0.26662082  0.40734908  0.12372093    -0.27000
C235        C  0.28575163  0.37413829  0.12135778    -0.15100
C236        C  0.26463712  0.34164050  0.12138011     0.35600
C237        C  0.22510505  0.34312730  0.12358036    -0.26400
C238        C  0.20591649  0.37624693  0.12407613    -0.15700
C239        C  0.22698882  0.40877308  0.12535017     0.36600
N240        N  0.20818639  0.44304212  0.12934778    -0.89900
H241        H  0.28271734  0.43232069  0.12486197     0.17800
H242        H  0.20926342  0.31816334  0.12385959     0.17800
N243        N  0.28313992  0.30724712  0.11758674    -0.89000
H244        H  0.22775632  0.46427846  0.13009009     0.35100
H245        H  0.19450358  0.44325738  0.15541595     0.40200
H246        H  0.29475817  0.30620722  0.09060080     0.39800
H247        H  0.26362903  0.28600463  0.11890384     0.34700
C248        C  0.14518171  0.39422573  0.23254217    -0.27000
C249        C  0.11513224  0.37759988  0.21329272    -0.15100
C250        C  0.08482630  0.36249430  0.23381928     0.35600
C251        C  0.08642036  0.36271154  0.27315788    -0.26400
C252        C  0.11734835  0.37769139  0.29230004    -0.15700
C253        C  0.14589002  0.39546120  0.27205076     0.36600
N254        N  0.17476732  0.41545605  0.29173374    -0.89900
H255        H  0.16764578  0.40691080  0.21667177     0.17800
H256        H  0.06328295  0.35108854  0.28885881     0.17800
N257        N  0.05242871  0.34626992  0.21595324    -0.89000
H258        H  0.19351520  0.42722122  0.27269188     0.35100
H259        H  0.16171616  0.43674316  0.30628771     0.40200
H260        H  0.05401884  0.34760865  0.18673578     0.39800
H261        H  0.02887945  0.36153438  0.22381563     0.34700
C262        C  0.27285137  0.35523945  0.34814277    -0.27000
C263        C  0.29329877  0.36446537  0.38065781    -0.15100
C264        C  0.27283033  0.37204569  0.41403823     0.35600
C265        C  0.23309466  0.37446010  0.41271431    -0.26400
C266        C  0.21283864  0.36830165  0.37911494    -0.15700
C267        C  0.23342697  0.35754841  0.34674078     0.36600
N268        N  0.21513129  0.34994595  0.31163988    -0.89900
H269        H  0.28730232  0.34750938  0.32258950     0.17800
H270        H  0.21784960  0.38056334  0.43839446     0.17800
N271        N  0.29216320  0.37610870  0.44940044    -0.89000
H272        H  0.22730887  0.36634164  0.29111285     0.35100
H273        H  0.22090484  0.32306928  0.30416433     0.40200
H274        H  0.30504112  0.35136687  0.45528869     0.39800
H275        H  0.27304567  0.38119439  0.47121435     0.34700
C276        C  0.11794682  0.16560677  0.27628723    -0.27000
C277        C  0.11896120  0.13250528  0.29532828    -0.15100
C278        C  0.11975111  0.09989766  0.27412475     0.35600
C279        C  0.11754830  0.10116659  0.23466137    -0.26400
C280        C  0.11538005  0.13428577  0.21577293    -0.15700
C281        C  0.11572737  0.16676581  0.23688172     0.36600
N282        N  0.11263793  0.20097937  0.21855238    -0.89900
H283        H  0.11826770  0.19082820  0.29193847     0.17800
H284        H  0.11849470  0.07616064  0.21846827     0.17800
N285        N  0.12393432  0.06569764  0.29260055    -0.89000
H286        H  0.13620115  0.21663270  0.22589352     0.35100
H287        H  0.08864691  0.21412988  0.22891614     0.40200
H288        H  0.15033200  0.06572650  0.30576690     0.39800
H289        H  0.12416520  0.04440473  0.27297146     0.34700
C290        C  0.27205292  0.16208952  0.38071377    -0.27000
C291        C  0.29065466  0.12868117  0.37954407    -0.15100
C292        C  0.26920641  0.09636860  0.37977181     0.35600
C293        C  0.22970058  0.09832619  0.38195516    -0.26400
C294        C  0.21107329  0.13181017  0.38370312    -0.15700
C295        C  0.23259184  0.16405674  0.38351585     0.36600
N296        N  0.21454278  0.19865799  0.38740478    -0.89900
H297        H  0.28841316  0.18685268  0.38031986     0.17800
H298        H  0.21329861  0.07352483  0.38134696     0.17800
N299        N  0.28744666  0.06173856  0.37667690    -0.89000
H300        H  0.23433452  0.21965411  0.38602313     0.35100
H301        H  0.20303351  0.19983169  0.41441378     0.40200
H302        H  0.30034007  0.06034242  0.35026232     0.39800
H303        H  0.26762612  0.04073097  0.37739681     0.34700
C304        C  0.09688808  0.23278731  0.36128313    -0.27000
C305        C  0.11367722  0.21575570  0.39193212    -0.15100
C306        C  0.12783659  0.23696431  0.42229745     0.35600
C307        C  0.12715029  0.27484515  0.41963705    -0.26400
C308        C  0.11267379  0.29171661  0.38757342    -0.15700
C309        C  0.09657700  0.27035727  0.35859903     0.36600
N310        N  0.07972563  0.28603208  0.32609885    -0.89900
H311        H  0.08434479  0.21669331  0.33891670     0.17800
H312        H  0.13924435  0.29118534  0.44214020     0.17800
N313        N  0.14426221  0.22133618  0.45535720    -0.89000
H314        H  0.10066279  0.29982889  0.31138858     0.35100
H315        H  0.05909752  0.30436013  0.33507818     0.40200
H316        H  0.14413466  0.19311669  0.45409108     0.39800
H317        H  0.12745203  0.22875293  0.47833122     0.34700
C318        C  0.07676198  0.42154904  0.58553862     0.41800
N319        N  0.06383507  0.46460342  0.54766977     0.00700
C320        C  0.40127867  0.06745370  0.54078068    -0.07200
H321        H  0.37826194  0.42895614  0.52283061     0.06200
C322        C  0.45820728  0.43452057  0.90311933    -0.07600
Co323      Co  0.49248778  0.50262460  0.56853339     0.74200
N324        N  0.42721781  0.46196987  0.53527043    -0.26700
Co325      Co  0.42953156  0.00123704  0.99354074     0.74100
C326        C  0.42237142  0.41744951  0.91356194     0.41900
N327        N  0.04700564  0.46368594  0.93582741     0.00300
N328        N  0.43428836  0.46155276  0.95173522     0.00400
N329        N  0.44227964  0.06645928  0.58957648    -0.47600
H330        H  0.02223222  0.43128264  0.61947299     0.06200
N331        N  0.45124106  0.46252769  0.56365228     0.00700
N332        N  0.43328577  0.04049002  0.95193630     0.00400
C333        C  0.42036275  0.08328617  0.91355625     0.42000
N334        N  0.07126807  0.46442445  0.96400510    -0.26200
C335        C  0.03923982  0.06930557  0.59806970    -0.07100
N336        N  0.08975292  0.44011780  0.55566136    -0.47300
N337        N  0.40745593  0.06498608  0.94370625    -0.47500
C338        C  0.07471364  0.08691873  0.58741314     0.41800
N339        N  0.45028538  0.04122709  0.56417022     0.00700
N340        N  0.06923985  0.04330179  0.96479346    -0.26200
N341        N  0.03500956  0.46394212  0.57114006    -0.26700
N342        N  0.04549550  0.04247962  0.93618993     0.00300
H343        H  0.11725671  0.07712285  0.97810772     0.06200
H344        H  0.47481466  0.07311975  0.87971344     0.06200
N345        N  0.42648589  0.04089168  0.53558674    -0.26800
N346        N  0.46305457  0.46162893  0.92817395    -0.26400
N347        N  0.06240656  0.04354143  0.54832965     0.00700
C348        C  0.41328700  0.41890925  0.57637535     0.42100
C349        C  0.09735070  0.43864351  0.95797490    -0.07600
N350        N  0.46203109  0.04085962  0.92839628    -0.26400
H351        H  0.47645561  0.42866886  0.87944794     0.06200
N352        N  0.44357985  0.43765192  0.58903567    -0.47600
H353        H  0.12161563  0.43355158  0.97558091     0.06200
C354        C  0.08265955  0.08686157  0.92424182     0.41900
C355        C  0.04046670  0.43743070  0.59597817    -0.07100
Co356      Co  0.06744597  0.50398657  0.50629697     0.73800
N357        N  0.05528145  0.43880683  0.91017188    -0.47300
C358        C  0.41194531  0.08439203  0.57658772     0.42200
N359        N  0.08754804  0.06899053  0.55665085    -0.47300
Co360      Co  0.00451714  0.00211231  0.93142440     0.73900
C361        C  0.45660538  0.06721320  0.90328905    -0.07600
C362        C  0.40221188  0.43513175  0.54067637    -0.07200
N363        N  0.03398898  0.04290676  0.57226632    -0.26700
N364        N  0.40909952  0.43606721  0.94365643    -0.47500
H365        H  0.37753626  0.07308882  0.52265139     0.06200
C366        C  0.09367809  0.07061001  0.95990049    -0.07600
Cl367      Cl  0.99848977  0.00244627  0.49995395    -0.50600
C368        C  0.08650550  0.42159151  0.92221388     0.41900
H369        H  0.02126059  0.07453885  0.62209049     0.06100
N370        N  0.05289873  0.06766757  0.91103049    -0.47300
C371        C  0.10545926  0.11282822  0.90105728     0.85800
C372        C  0.14835513  0.10856326  0.90558337    -0.54400
C373        C  0.16911674  0.13232333  0.88475124     0.08700
C374        C  0.14476803  0.15787418  0.86099881     0.19700
C375        C  0.09745599  0.15261030  0.91051834    -0.55100
C376        C  0.11808029  0.17615953  0.88953650     0.08800
C377        C  0.09860224  0.10920364  0.85842189    -0.54700
C378        C  0.11957179  0.13249033  0.83726583     0.09400
H379        H  0.16121500  0.08848145  0.92356963     0.13900
H380        H  0.16127440  0.17709878  0.84370796    -0.00300
H381        H  0.07696642  0.16140931  0.93139627     0.14200
H382        H  0.07899527  0.08983874  0.84602862     0.14000
C383        C  0.10832597  0.39505498  0.89823995     0.85800
C384        C  0.10047638  0.39978446  0.85607536    -0.54400
C385        C  0.11897373  0.37577564  0.83366514     0.08700
C386        C  0.14341787  0.34867038  0.85526014     0.19700
C387        C  0.09834347  0.35555042  0.90656345    -0.55100
C388        C  0.11659619  0.33132574  0.88388204     0.08800
C389        C  0.15173112  0.39696820  0.90161050    -0.54700
C390        C  0.17056171  0.37233723  0.87914218     0.09400
H391        H  0.08267071  0.42088538  0.84464466     0.13900
H392        H  0.15706208  0.32797081  0.83720125    -0.00300
H393        H  0.07875087  0.34743228  0.92842850     0.14200
H394        H  0.16610297  0.41620023  0.91997413     0.14000
C395        C  0.10002471  0.39586326  0.60847551     0.85800
C396        C  0.14288216  0.39918574  0.60217228    -0.54400
C397        C  0.16389505  0.37619411  0.62358744     0.08700
C398        C  0.13983682  0.35124406  0.64837847     0.19700
C399        C  0.09074123  0.35588546  0.60057416    -0.55100
C400        C  0.11169985  0.33245599  0.62135499     0.08800
C401        C  0.09497865  0.40095671  0.65113020    -0.54700
C402        C  0.11567493  0.37741801  0.67186971     0.09400
H403        H  0.15550113  0.41829138  0.58284884     0.13900
H404        H  0.15648259  0.33221936  0.66574566    -0.00300
H405        H  0.07014344  0.34694713  0.57981089     0.14200
H406        H  0.07689356  0.42131107  0.66395648     0.14000
C407        C  0.09846312  0.11293535  0.61062888     0.85800
C408        C  0.09247100  0.11054253  0.65340568    -0.54400
C409        C  0.11425627  0.13420367  0.67395580     0.08700
C410        C  0.14018333  0.15790596  0.64962480     0.19700
C411        C  0.09165724  0.15287235  0.60122019    -0.55100
C412        C  0.11375338  0.17639275  0.62143071     0.08800
C413        C  0.14116079  0.10734789  0.60536583    -0.54700
C414        C  0.16301628  0.13062727  0.62606934     0.09400
H415        H  0.07330664  0.09141886  0.66641056     0.13900
H416        H  0.15795683  0.17741313  0.66566219    -0.00300
H417        H  0.07138793  0.16175078  0.58035787     0.14200
H418        H  0.15321012  0.08664263  0.58710453     0.14000
C419        C  0.39675539  0.10862391  0.89034671     0.85800
C420        C  0.40012967  0.10266069  0.84749159    -0.54400
C421        C  0.37812710  0.12542207  0.82669665     0.08700
C422        C  0.35537487  0.15235401  0.85098879     0.19700
C423        C  0.40653826  0.14869726  0.89665685    -0.55100
C424        C  0.38483553  0.17159546  0.87605098     0.08800
C425        C  0.35428537  0.10570452  0.89857887    -0.54700
C426        C  0.33250291  0.12824505  0.87763145     0.09400
H427        H  0.41956711  0.08340968  0.83503857     0.13900
H428        H  0.33769163  0.17116174  0.83441598    -0.00300
H429        H  0.42840438  0.15814632  0.91583501     0.14200
H430        H  0.34240127  0.08734920  0.91910604     0.14000
C431        C  0.38934021  0.11091956  0.59947235     0.85800
C432        C  0.34649824  0.10595585  0.59545562    -0.54400
C433        C  0.32594172  0.13050656  0.61572327     0.08700
C434        C  0.35025541  0.15717916  0.63897169     0.19700
C435        C  0.39719286  0.15032121  0.58914014    -0.55100
C436        C  0.37670890  0.17454718  0.60974627     0.08800
C437        C  0.39649046  0.10890337  0.64207803    -0.54700
C438        C  0.37576541  0.13283863  0.66309950     0.09400
H439        H  0.33367050  0.08406824  0.57931142     0.13900
H440        H  0.33330495  0.17698444  0.65545835    -0.00300
H441        H  0.41744723  0.15841529  0.56786659     0.14200
H442        H  0.41538461  0.08938646  0.65471970     0.14000
C443        C  0.39083300  0.39310968  0.60018496     0.85800
C444        C  0.39944324  0.39691087  0.64248974    -0.54400
C445        C  0.37973565  0.37340836  0.66429673     0.08700
C446        C  0.35298207  0.34843766  0.64208312     0.19700
C447        C  0.39801404  0.35311281  0.59053415    -0.55100
C448        C  0.37837851  0.32977452  0.61276717     0.08800
C449        C  0.34778120  0.39766554  0.59745024    -0.54700
C450        C  0.32775547  0.37407229  0.61926623     0.09400
H451        H  0.41871368  0.41687107  0.65441775     0.13900
H452        H  0.33726530  0.32942512  0.66035561    -0.00300
H453        H  0.41727136  0.34406207  0.56862768     0.14200
H454        H  0.33432391  0.41763417  0.57975667     0.14000
C455        C  0.39935750  0.39080477  0.89042694     0.85800
C456        C  0.35669992  0.39136895  0.89914624    -0.54400
C457        C  0.33560465  0.36719431  0.87835712     0.08700
C458        C  0.35976510  0.34541340  0.84990293     0.19700
C459        C  0.41111264  0.35107593  0.89526492    -0.55100
C460        C  0.39019678  0.32737243  0.87401737     0.08800
C461        C  0.40177261  0.39763853  0.84802494    -0.54700
C462        C  0.38107621  0.37402049  0.82677964     0.09400
H463        H  0.34433811  0.41050115  0.91888615     0.13900
H464        H  0.34398598  0.32547213  0.83239438    -0.00300
H465        H  0.43293975  0.34241066  0.91460845     0.14200
H466        H  0.41836080  0.41925766  0.83570744     0.14000
C467        C  0.34840910  0.38237448  0.72540025    -0.27000
C468        C  0.38155916  0.37381496  0.70583631    -0.15100
C469        C  0.41511630  0.36682646  0.72623685     0.35600
C470        C  0.41397320  0.36740508  0.76566442    -0.26400
C471        C  0.38060725  0.37548920  0.78518331    -0.15700
C472        C  0.34793256  0.38500829  0.76470941     0.36600
N473        N  0.31460763  0.39919499  0.78250309    -0.89900
H474        H  0.32301727  0.38886880  0.70984625     0.17800
H475        H  0.43940478  0.36122111  0.78127136     0.17800
N476        N  0.45055187  0.35868513  0.70832076    -0.89000
H477        H  0.30915695  0.42450373  0.77080459     0.35100
H478        H  0.31946137  0.40457798  0.81094955     0.40200
H479        H  0.44813722  0.35721035  0.67912917     0.39800
H480        H  0.45890594  0.33295777  0.71697763     0.34700
C481        C  0.40088916  0.23225738  0.63461093    -0.27000
C482        C  0.38116754  0.21405140  0.60610649    -0.15100
C483        C  0.36437823  0.23407947  0.57678128     0.35600
C484        C  0.36500825  0.27201795  0.57888058    -0.26400
C485        C  0.38162807  0.29007378  0.60957474    -0.15700
C486        C  0.40035788  0.27007690  0.63738220     0.36600
N487        N  0.41865237  0.28814594  0.66835875    -0.89900
H488        H  0.41610589  0.21673869  0.65525203     0.17800
H489        H  0.35155232  0.28748951  0.55690848     0.17800
N490        N  0.34603544  0.21712465  0.54508063    -0.89000
H491        H  0.43327618  0.26958783  0.68487142     0.35100
H492        H  0.39744646  0.29879021  0.68557323     0.40200
H493        H  0.34964435  0.18915479  0.54538093     0.39800
H494        H  0.35976966  0.22592461  0.52078767     0.34700
C495        C  0.37852881  0.16001700  0.76718344    -0.27000
C496        C  0.37738711  0.12617613  0.78475267    -0.15100
C497        C  0.37325789  0.09467600  0.76194770     0.35600
C498        C  0.37278446  0.09774193  0.72268861    -0.26400
C499        C  0.37514182  0.13159205  0.70510290    -0.15700
C500        C  0.37684706  0.16303371  0.72788449     0.36600
N501        N  0.37749425  0.19818967  0.71153973    -0.89900
H502        H  0.38099347  0.18452481  0.78406269     0.17800
H503        H  0.36977055  0.07334055  0.70572156     0.17800
N504        N  0.36722155  0.05950646  0.77748509    -0.89000
H505        H  0.40180462  0.21157952  0.72101942     0.35100
H506        H  0.35416326  0.21257731  0.72162957     0.40200
H507        H  0.34483005  0.06092888  0.79656411     0.39800
H508        H  0.39152646  0.05114044  0.79136700     0.34700
C509        C  0.36713416  0.26998259  0.90097475    -0.27000
C510        C  0.39263693  0.28756807  0.87716170    -0.15100
C511        C  0.41732158  0.26699914  0.85441595     0.37400
C512        C  0.41506499  0.22890565  0.85505960    -0.26400
C513        C  0.38874261  0.21141580  0.87814383    -0.15700
C514        C  0.36530927  0.23200129  0.90207293     0.36600
N515        N  0.33943073  0.21420351  0.92696450    -0.89900
H516        H  0.34822938  0.28601955  0.91833943     0.17800
H517        H  0.43323796  0.21281229  0.83698857     0.17800
N518        N  0.44412283  0.28484901  0.83054752    -0.89000
H519        H  0.32397770  0.23322557  0.94251940     0.35100
H520        H  0.35535265  0.19955892  0.94630791     0.40200
H521        H  0.42891612  0.29886950  0.81018143     0.39800
H522        H  0.46059307  0.26581351  0.81609497     0.34700
C523        C  0.22199684  0.13253129  0.58883305    -0.27000
C524        C  0.20479579  0.13023429  0.62423931    -0.15100
C525        C  0.22770185  0.12697891  0.65664852     0.35600
C526        C  0.26701988  0.12719024  0.65296133    -0.26400
C527        C  0.28418926  0.12983395  0.61755791    -0.15700
C528        C  0.26122271  0.13225703  0.58508605     0.36600
N529        N  0.27666627  0.13585449  0.54809803    -0.89900
H530        H  0.20472001  0.13501873  0.56381497     0.17800
H531        H  0.28435107  0.12471066  0.67794822     0.17800
N532        N  0.21207324  0.12169606  0.69334801    -0.89000
H533        H  0.29228486  0.11280310  0.54130245     0.35100
H534        H  0.29437845  0.15842360  0.54795567     0.40200
H535        H  0.19374126  0.09948158  0.69223691     0.39800
H536        H  0.19701101  0.14470432  0.70140104     0.34700
C537        C  0.14090271  0.27407742  0.60315758    -0.27000
C538        C  0.10936768  0.29255257  0.61713846    -0.15100
C539        C  0.07747829  0.27265532  0.62889939     0.35600
C540        C  0.07913072  0.23453679  0.62909641    -0.26400
C541        C  0.11182658  0.21622536  0.61748106    -0.15700
C542        C  0.14262273  0.23630597  0.60345953     0.36600
N543        N  0.17583749  0.21910771  0.58902544    -0.89900
H544        H  0.16446381  0.28913868  0.59195922     0.17800
H545        H  0.05528249  0.21906082  0.63931126     0.17800
N546        N  0.04414728  0.29108679  0.64169823    -0.89000
H547        H  0.16781992  0.20073512  0.56789074     0.35100
H548        H  0.18868939  0.20493078  0.61076396     0.40200
H549        H  0.03250952  0.30440539  0.61866508     0.39800
H550        H  0.02380310  0.27247637  0.65057305     0.34700
C551        C  0.26662087  0.40734909  0.62372076    -0.27000
C552        C  0.28575165  0.37413828  0.62135766    -0.15100
C553        C  0.26463707  0.34164052  0.62138020     0.35600
C554        C  0.22510502  0.34312739  0.62358059    -0.26400
C555        C  0.20591653  0.37624706  0.62407621    -0.15700
C556        C  0.22698888  0.40877319  0.62535008     0.36600
N557        N  0.20818650  0.44304229  0.62934757    -0.89900
H558        H  0.28271744  0.43232070  0.62486172     0.17800
H559        H  0.20926335  0.31816350  0.62386002     0.17800
N560        N  0.28313978  0.30724711  0.61758697    -0.89000
H561        H  0.22775642  0.46427863  0.63008984     0.35100
H562        H  0.19450361  0.44325765  0.65541570     0.40200
H563        H  0.29475806  0.30620704  0.59060104     0.39800
H564        H  0.26362882  0.28600468  0.61890436     0.34700
C565        C  0.14518165  0.39422592  0.73254209    -0.27000
C566        C  0.11513228  0.37759983  0.71329259    -0.15100
C567        C  0.08482637  0.36249414  0.73381913     0.35600
C568        C  0.08642042  0.36271138  0.77315771    -0.26400
C569        C  0.11734833  0.37769133  0.79229995    -0.15700
C570        C  0.14588990  0.39546135  0.77205070     0.36600
N571        N  0.17476701  0.41545644  0.79173377    -0.89900
H572        H  0.16764560  0.40691121  0.71667176     0.17800
H573        H  0.06328302  0.35108828  0.78885859     0.17800
N574        N  0.05242887  0.34626956  0.71595307    -0.89000
H575        H  0.19351479  0.42722182  0.77269195     0.35100
H576        H  0.16171567  0.43674342  0.80628774     0.40200
H577        H  0.05401884  0.34760849  0.68673561     0.39800
H578        H  0.02887949  0.36153385  0.72381540     0.34700
C579        C  0.27285136  0.35523992  0.84814240    -0.27000
C580        C  0.29329878  0.36446573  0.88065750    -0.15100
C581        C  0.27283035  0.37204591  0.91403797     0.35600
C582        C  0.23309468  0.37446017  0.91271412    -0.26400
C583        C  0.21283861  0.36830171  0.87911479    -0.15700
C584        C  0.23342692  0.35754877  0.84674050     0.36600
N585        N  0.21513116  0.34994653  0.81163961    -0.89900
H586        H  0.28730230  0.34750999  0.82258912     0.17800
H587        H  0.21784964  0.38056333  0.93839432     0.17800
N588        N  0.29216326  0.37610887  0.94940018    -0.89000
H589        H  0.22730872  0.36634238  0.79111267     0.35100
H590        H  0.22090468  0.32306991  0.80416383     0.40200
H591        H  0.30504119  0.35136703  0.95528837     0.39800
H592        H  0.27304576  0.38119453  0.97121413     0.34700
C593        C  0.11794680  0.16560671  0.77628731    -0.27000
C594        C  0.11896135  0.13250520  0.79532834    -0.15100
C595        C  0.11975127  0.09989757  0.77412479     0.35600
C596        C  0.11754818  0.10116647  0.73466141    -0.26400
C597        C  0.11537976  0.13428569  0.71577301    -0.15700
C598        C  0.11572710  0.16676574  0.73688182     0.36600
N599        N  0.11263723  0.20097927  0.71855250    -0.89900
H600        H  0.11826765  0.19082812  0.79193852     0.17800
H601        H  0.11849446  0.07616052  0.71846835     0.17800
N602        N  0.12393466  0.06569755  0.79260057    -0.89000
H603        H  0.13620043  0.21663280  0.72589332     0.35100
H604        H  0.08864616  0.21412958  0.72891647     0.40200
H605        H  0.15033240  0.06572644  0.80576681     0.39800
H606        H  0.12416546  0.04440464  0.77297149     0.34700
C607        C  0.27205304  0.16208973  0.88071428    -0.27000
C608        C  0.29065482  0.12868138  0.87954431    -0.15100
C609        C  0.26920661  0.09636881  0.87977158     0.35600
C610        C  0.22970080  0.09832638  0.88195492    -0.26400
C611        C  0.21107344  0.13181028  0.88370318    -0.15700
C612        C  0.23259194  0.16405688  0.88351622     0.36600
N613        N  0.21454280  0.19865808  0.88740538    -0.89900
H614        H  0.28841323  0.18685291  0.88032062     0.17800
H615        H  0.21329882  0.07352497  0.88134646     0.17800
N616        N  0.28744690  0.06173880  0.87667620    -0.89000
H617        H  0.23433454  0.21965423  0.88602400     0.35100
H618        H  0.20303347  0.19983158  0.91441435     0.40200
H619        H  0.30034028  0.06034301  0.85026161     0.39800
H620        H  0.26762636  0.04073120  0.87739576     0.34700
C621        C  0.09688801  0.23278725  0.86128320    -0.27000
C622        C  0.11367714  0.21575561  0.89193217    -0.15100
C623        C  0.12783652  0.23696421  0.92229750     0.35600
C624        C  0.12715024  0.27484506  0.91963707    -0.26400
C625        C  0.11267373  0.29171655  0.88757346    -0.15700
C626        C  0.09657695  0.27035721  0.85859908     0.36600
N627        N  0.07972568  0.28603206  0.82609885    -0.89900
H628        H  0.08434467  0.21669326  0.83891678     0.17800
H629        H  0.13924439  0.29118524  0.94214017     0.17800
N630        N  0.14426215  0.22133608  0.95535723    -0.89000
H631        H  0.10066286  0.29982888  0.81138868     0.35100
H632        H  0.05909765  0.30436013  0.83507820     0.40200
H633        H  0.14413460  0.19311658  0.95409112     0.39800
H634        H  0.12745205  0.22875286  0.97833130     0.34700
C635        C  0.07676196  0.92154901  0.08553860     0.41800
N636        N  0.06383504  0.96460328  0.04766966     0.00700
C637        C  0.40127875  0.56745377  0.04078058    -0.07200
H638        H  0.37826190  0.92895635  0.02283049     0.06200
C639        C  0.45820725  0.93452057  0.40311930    -0.07600
Co640      Co  0.49248780  0.00262463  0.06853326     0.74200
N641        N  0.42721782  0.96196997  0.03527030    -0.26700
Co642      Co  0.42953158  0.50123702  0.49354084     0.74100
C643        C  0.42237144  0.91744947  0.41356193     0.41900
N644        N  0.04700560  0.96368601  0.43582734     0.00300
N645        N  0.43428837  0.96155275  0.45173519     0.00400
N646        N  0.44227973  0.56645943  0.08957639    -0.47600
H647        H  0.02223218  0.93128254  0.11947293     0.06200
N648        N  0.45124099  0.96252783  0.06365219     0.00700
N649        N  0.43328585  0.54049005  0.45193642     0.00400
C650        C  0.42036280  0.58328611  0.41355622     0.42000
N651        N  0.07126810  0.96442460  0.46400498    -0.26200
C652        C  0.03923985  0.56930553  0.09806982    -0.07100
N653        N  0.08975295  0.94011775  0.05566130    -0.47300
N654        N  0.40745607  0.56498617  0.44370636    -0.47500
C655        C  0.07471369  0.58691866  0.08741323     0.41800
N656        N  0.45028537  0.54122711  0.06417026     0.00700
N657        N  0.06923972  0.54330195  0.46479355    -0.26200
N658        N  0.03500951  0.96394198  0.07113993    -0.26700
N659        N  0.04549534  0.54247975  0.43619003     0.00300
H660        H  0.11725674  0.57712290  0.47810760     0.06200
H661        H  0.47481459  0.57311949  0.37971332     0.06200
N662        N  0.42648589  0.54089167  0.03558676    -0.26800
N663        N  0.46305455  0.96162897  0.42817388    -0.26400
N664        N  0.06240660  0.54354128  0.04832981     0.00700
C665        C  0.41328686  0.91890947  0.07637530     0.42100
C666        C  0.09735070  0.93864363  0.45797481    -0.07600
N667        N  0.46203110  0.54085952  0.42839631    -0.26400
H668        H  0.47645558  0.92866885  0.37944788     0.06200
N669        N  0.44357968  0.93765214  0.08903564    -0.47600
H670        H  0.12161564  0.93355175  0.47558082     0.06200
C671        C  0.08265952  0.58686156  0.42424175     0.41900
C672        C  0.04046660  0.93743056  0.09597811    -0.07100
Co673      Co  0.06744596  0.00398643  0.00629688     0.73800
N674        N  0.05528133  0.93880677  0.41017192    -0.47300
C675        C  0.41194545  0.58439222  0.07658756     0.42200
N676        N  0.08754810  0.56899038  0.05665098    -0.47300
Co677      Co  0.00451708  0.50211232  0.43142450     0.73900
C678        C  0.45660536  0.56721302  0.40328897    -0.07600
C679        C  0.40221186  0.93513189  0.04067628    -0.07200
N680        N  0.03398901  0.54290667  0.07226648    -0.26700
N681        N  0.40909957  0.93606715  0.44365643    -0.47500
H682        H  0.37753639  0.57308887  0.02265124     0.06200
C683        C  0.09367802  0.57061011  0.45990048    -0.07600
Cl684      Cl  0.99848976  0.50244624  0.99995409    -0.50600
C685        C  0.08650537  0.92159144  0.42221392     0.41900
H686        H  0.02126065  0.57453885  0.12209059     0.06100
N687        N  0.05289863  0.56766762  0.41103050    -0.47300
C688        C  0.10545929  0.61282824  0.40105725     0.85800
C689        C  0.14835515  0.60856317  0.40558336    -0.54400
C690        C  0.16911683  0.63232323  0.38475127     0.08700
C691        C  0.14476818  0.65787417  0.36099886     0.19700
C692        C  0.09745607  0.65261032  0.41051836    -0.55100
C693        C  0.11808046  0.67615953  0.38953657     0.08800
C694        C  0.09860235  0.60920374  0.35842186    -0.54700
C695        C  0.11957195  0.63249040  0.33726582     0.09400
H696        H  0.16121498  0.58848130  0.42356957     0.13900
H697        H  0.16127460  0.67709875  0.34370805    -0.00300
H698        H  0.07696651  0.66140935  0.43139627     0.14200
H699        H  0.07899538  0.58983884  0.34602855     0.14000
C700        C  0.10832586  0.89505489  0.39823999     0.85800
C701        C  0.10047619  0.89978428  0.35607541    -0.54400
C702        C  0.11897364  0.87577557  0.33366517     0.08700
C703        C  0.14341791  0.84867043  0.35526016     0.19700
C704        C  0.09834350  0.85555028  0.40656352    -0.55100
C705        C  0.11659631  0.83132570  0.38388208     0.08800
C706        C  0.15173101  0.89696830  0.40161045    -0.54700
C707        C  0.17056168  0.87233739  0.37914214     0.09400
H708        H  0.08267035  0.92088508  0.34464471     0.13900
H709        H  0.15706222  0.82797090  0.33720128    -0.00300
H710        H  0.07875094  0.84743205  0.42842854     0.14200
H711        H  0.16610280  0.91620041  0.41997403     0.14000
C712        C  0.10002459  0.89586320  0.10847551     0.85800
C713        C  0.14288201  0.89918561  0.10217232    -0.54400
C714        C  0.16389490  0.87619403  0.12358750     0.08700
C715        C  0.13983663  0.85124407  0.14837854     0.19700
C716        C  0.09074103  0.85588542  0.10057419    -0.55100
C717        C  0.11169965  0.83245597  0.12135506     0.08800
C718        C  0.09497853  0.90095671  0.15113019    -0.54700
C719        C  0.11567474  0.87741803  0.17186974     0.09400
H720        H  0.15550099  0.91829121  0.08284881     0.13900
H721        H  0.15648238  0.83221938  0.16574579    -0.00300
H722        H  0.07014321  0.84694709  0.07981100     0.14200
H723        H  0.07689342  0.92131111  0.16395643     0.14000
C724        C  0.09846323  0.61293531  0.11062889     0.85800
C725        C  0.09247126  0.61054253  0.15340571    -0.54400
C726        C  0.11425664  0.63420368  0.17395573     0.08700
C727        C  0.14018359  0.65790598  0.14962461     0.19700
C728        C  0.09165730  0.65287230  0.10122026    -0.55100
C729        C  0.11375352  0.67639275  0.12143063     0.08800
C730        C  0.14116088  0.60734785  0.10536566    -0.54700
C731        C  0.16301642  0.63062726  0.12606907     0.09400
H732        H  0.07330691  0.59141891  0.16641066     0.13900
H733        H  0.15795720  0.67741312  0.16566187    -0.00300
H734        H  0.07138784  0.66175072  0.08035803     0.14200
H735        H  0.15321018  0.58664253  0.08710443     0.14000
C736        C  0.39675539  0.60862383  0.39034662     0.85800
C737        C  0.40012973  0.60266068  0.34749151    -0.54400
C738        C  0.37812715  0.62542202  0.32669653     0.08700
C739        C  0.35537488  0.65235385  0.35098870     0.19700
C740        C  0.40653817  0.64869721  0.39665687    -0.55100
C741        C  0.38483542  0.67159537  0.37605094     0.08800
C742        C  0.35428537  0.60570434  0.39857862    -0.54700
C743        C  0.33250290  0.62824487  0.37763125     0.09400
H744        H  0.41956728  0.58340976  0.33503848     0.13900
H745        H  0.33769163  0.67116161  0.33441587    -0.00300
H746        H  0.42840415  0.65814625  0.41583508     0.14200
H747        H  0.34240124  0.58734890  0.41910572     0.14000
C748        C  0.38934032  0.61091975  0.09947216     0.85800
C749        C  0.34649834  0.60595597  0.09545545    -0.54400
C750        C  0.32594185  0.63050675  0.11572305     0.08700
C751        C  0.35025550  0.65717938  0.13897146     0.19700
C752        C  0.39719295  0.65032138  0.08913990    -0.55100
C753        C  0.37670899  0.67454738  0.10974601     0.08800
C754        C  0.39649059  0.60890366  0.14207785    -0.54700
C755        C  0.37576549  0.63283887  0.16309933     0.09400
H756        H  0.33367063  0.58406833  0.07931134     0.13900
H757        H  0.33330499  0.67698468  0.15545804    -0.00300
H758        H  0.41744731  0.65841540  0.06786631     0.14200
H759        H  0.41538478  0.58938678  0.15471956     0.14000
C760        C  0.39083282  0.89310987  0.10018488     0.85800
C761        C  0.39944296  0.89691108  0.14248964    -0.54400
C762        C  0.37973538  0.87340860  0.16429666     0.08700
C763        C  0.35298186  0.84843786  0.14208301     0.19700
C764        C  0.39801391  0.85311300  0.09053413    -0.55100
C765        C  0.37837838  0.82977470  0.11276714     0.08800
C766        C  0.34778104  0.89766573  0.09745005    -0.54700
C767        C  0.32775529  0.87407244  0.11926602     0.09400
H768        H  0.41871342  0.91687132  0.15441764     0.13900
H769        H  0.33726503  0.82942535  0.16035548    -0.00300
H770        H  0.41727129  0.84406223  0.06862770     0.14200
H771        H  0.33432384  0.91763438  0.07975646     0.14000
C772        C  0.39935744  0.89080479  0.39042688     0.85800
C773        C  0.35669988  0.89136901  0.39914629    -0.54400
C774        C  0.33560461  0.86719434  0.37835717     0.08700
C775        C  0.35976502  0.84541345  0.34990293     0.19700
C776        C  0.41111257  0.85107595  0.39526478    -0.55100
C777        C  0.39019667  0.82737244  0.37401730     0.08800
C778        C  0.40177244  0.89763860  0.34802491    -0.54700
C779        C  0.38107604  0.87402056  0.32677961     0.09400
H780        H  0.34433814  0.91050121  0.41888617     0.13900
H781        H  0.34398591  0.82547218  0.33239438    -0.00300
H782        H  0.43293970  0.84241067  0.41460833     0.14200
H783        H  0.41836058  0.91925779  0.33570739     0.14000
C784        C  0.34840888  0.88237466  0.22540024    -0.27000
C785        C  0.38155893  0.87381519  0.20583626    -0.15100
C786        C  0.41511607  0.86682663  0.22623678     0.35600
C787        C  0.41397296  0.86740513  0.26566436    -0.26400
C788        C  0.38060703  0.87548922  0.28518329    -0.15700
C789        C  0.34793234  0.88500836  0.26470941     0.36600
N790        N  0.31460749  0.89919520  0.28250311    -0.89900
H791        H  0.32301706  0.88886909  0.20984626     0.17800
H792        H  0.43940456  0.86122113  0.28127129     0.17800
N793        N  0.45055166  0.85868537  0.20832067    -0.89000
H794        H  0.30915697  0.92450399  0.27080463     0.35100
H795        H  0.31946121  0.90457807  0.31094960     0.40200
H796        H  0.44813701  0.85721054  0.17912909     0.39800
H797        H  0.45890570  0.83295794  0.21697736     0.34700
C798        C  0.40088897  0.73225757  0.13461093    -0.27000
C799        C  0.38116765  0.71405160  0.10610630    -0.15100
C800        C  0.36437851  0.73407969  0.07678103     0.35600
C801        C  0.36500846  0.77201816  0.07888042    -0.26400
C802        C  0.38162803  0.79007397  0.10957470    -0.15700
C803        C  0.40035768  0.77007707  0.13738225     0.36600
N804        N  0.41865183  0.78814607  0.16835902    -0.89900
H805        H  0.41610550  0.71673885  0.15525217     0.17800
H806        H  0.35155264  0.78748973  0.05690827     0.17800
N807        N  0.34603602  0.71712490  0.04508021    -0.89000
H808        H  0.43327555  0.76958796  0.18487180     0.35100
H809        H  0.39744573  0.79879033  0.18557330     0.40200
H810        H  0.34964487  0.68915503  0.04538059     0.39800
H811        H  0.35977057  0.72592479  0.02078742     0.34700
C812        C  0.37852860  0.66001705  0.26718338    -0.27000
C813        C  0.37738725  0.62617614  0.28475254    -0.15100
C814        C  0.37325837  0.59467600  0.26194750     0.35600
C815        C  0.37278487  0.59774201  0.22268840    -0.26400
C816        C  0.37514188  0.63159220  0.20510276    -0.15700
C817        C  0.37684681  0.66303385  0.22788443     0.36600
N818        N  0.37749352  0.69818984  0.21153976    -0.89900
H819        H  0.38099300  0.68452485  0.28406269     0.17800
H820        H  0.36977111  0.57334065  0.20572134     0.17800
N821        N  0.36722223  0.55950640  0.27748482    -0.89000
H822        H  0.40180371  0.71157998  0.22101948     0.35100
H823        H  0.35416231  0.71257714  0.22162967     0.40200
H824        H  0.34483067  0.56092865  0.29656380     0.39800
H825        H  0.39152714  0.55114041  0.29136674     0.34700
C826        C  0.36713392  0.76998255  0.40097469    -0.27000
C827        C  0.39263675  0.78756804  0.37716167    -0.15100
C828        C  0.41732139  0.76699909  0.35441590     0.37400
C829        C  0.41506485  0.72890558  0.35505952    -0.26400
C830        C  0.38874238  0.71141574  0.37814371    -0.15700
C831        C  0.36530895  0.73200123  0.40207276     0.36600
N832        N  0.33943027  0.71420344  0.42696421    -0.89900
H833        H  0.34822915  0.78601948  0.41833941     0.17800
H834        H  0.43323787  0.71281227  0.33698856     0.17800
N835        N  0.44412264  0.78484897  0.33054749    -0.89000
H836        H  0.32397724  0.73322552  0.44251914     0.35100
H837        H  0.35535205  0.69955871  0.44630763     0.40200
H838        H  0.42891593  0.79886944  0.31018135     0.39800
H839        H  0.46059293  0.76581347  0.31609499     0.34700
C840        C  0.22199701  0.63253132  0.08883280    -0.27000
C841        C  0.20479594  0.63023423  0.12423903    -0.15100
C842        C  0.22770200  0.62697891  0.15664824     0.35600
C843        C  0.26702002  0.62719038  0.15296109    -0.26400
C844        C  0.28418940  0.62983417  0.11755769    -0.15700
C845        C  0.26122289  0.63225721  0.08508582     0.36600
N846        N  0.27666648  0.63585477  0.04809782    -0.89900
H847        H  0.20472017  0.63501875  0.06381469     0.17800
H848        H  0.28435117  0.62471084  0.17794800     0.17800
N849        N  0.21207340  0.62169601  0.19334773    -0.89000
H850        H  0.29228528  0.61280350  0.04130232     0.35100
H851        H  0.29437869  0.65842384  0.04795557     0.40200
H852        H  0.19374148  0.59948147  0.19223665     0.39800
H853        H  0.19701119  0.64470428  0.20140082     0.34700
C854        C  0.14090253  0.77407745  0.10315738    -0.27000
C855        C  0.10936755  0.79255256  0.11713848    -0.15100
C856        C  0.07747829  0.77265525  0.12889961     0.35600
C857        C  0.07913078  0.73453673  0.12909661    -0.26400
C858        C  0.11182664  0.71622535  0.11748104    -0.15700
C859        C  0.14262269  0.73630603  0.10345936     0.36600
N860        N  0.17583741  0.71910786  0.08902497    -0.89900
H861        H  0.16446350  0.78913878  0.09195876     0.17800
H862        H  0.05528265  0.71906076  0.13931159     0.17800
N863        N  0.04414734  0.79108671  0.14169870    -0.89000
H864        H  0.16781971  0.70073542  0.06789016     0.35100
H865        H  0.18868952  0.70493077  0.11076326     0.40200
H866        H  0.03250946  0.80440545  0.11866569     0.39800
H867        H  0.02380318  0.77247627  0.15057355     0.34700
C868        C  0.26662069  0.90734912  0.12372064    -0.27000
C869        C  0.28575148  0.87413834  0.12135738    -0.15100
C870        C  0.26463697  0.84164051  0.12137982     0.35600
C871        C  0.22510490  0.84312732  0.12358028    -0.26400
C872        C  0.20591638  0.87624698  0.12407616    -0.15700
C873        C  0.22698870  0.90877315  0.12535011     0.36600
N874        N  0.20818628  0.94304221  0.12934780    -0.89900
H875        H  0.28271722  0.93232071  0.12486166     0.17800
H876        H  0.20926325  0.81816341  0.12385959     0.17800
N877        N  0.28313975  0.80724715  0.11758641    -0.89000
H878        H  0.22775620  0.96427856  0.13009016     0.35100
H879        H  0.19450346  0.94325746  0.15541596     0.40200
H880        H  0.29475802  0.80620724  0.09060048     0.39800
H881        H  0.26362884  0.78600468  0.11890368     0.34700
C882        C  0.14518149  0.89422595  0.23254210    -0.27000
C883        C  0.11513207  0.87759991  0.21329265    -0.15100
C884        C  0.08482617  0.86249420  0.23381918     0.35600
C885        C  0.08642026  0.86271135  0.27315779    -0.26400
C886        C  0.11734819  0.87769128  0.29229998    -0.15700
C887        C  0.14588975  0.89546134  0.27205072     0.36600
N888        N  0.17476688  0.91545639  0.29173377    -0.89900
H889        H  0.16764545  0.90691115  0.21667176     0.17800
H890        H  0.06328290  0.85108822  0.28885871     0.17800
N891        N  0.05242863  0.84626973  0.21595310    -0.89000
H892        H  0.19351462  0.92722179  0.27269191     0.35100
H893        H  0.16171555  0.93674339  0.30628776     0.40200
H894        H  0.05401866  0.84760865  0.18673566     0.39800
H895        H  0.02887933  0.86153408  0.22381548     0.34700
C896        C  0.27285136  0.85523990  0.34814241    -0.27000
C897        C  0.29329875  0.86446571  0.38065750    -0.15100
C898        C  0.27283034  0.87204593  0.41403796     0.35600
C899        C  0.23309464  0.87446036  0.41271409    -0.26400
C900        C  0.21283861  0.86830190  0.37911475    -0.15700
C901        C  0.23342691  0.85754880  0.34674049     0.36600
N902        N  0.21513119  0.84994652  0.31163959    -0.89900
H903        H  0.28730230  0.84750997  0.32258912     0.17800
H904        H  0.21784960  0.88056363  0.43839424     0.17800
N905        N  0.29216326  0.87610883  0.44940014    -0.89000
H906        H  0.22730881  0.86634230  0.29111263     0.35100
H907        H  0.22090467  0.82306988  0.30416388     0.40200
H908        H  0.30504118  0.85136699  0.45528831     0.39800
H909        H  0.27304576  0.88119449  0.47121408     0.34700
C910        C  0.11794739  0.66560678  0.27628729    -0.27000
C911        C  0.11896164  0.63250527  0.29532832    -0.15100
C912        C  0.11975140  0.59989763  0.27412476     0.35600
C913        C  0.11754843  0.60116658  0.23466137    -0.26400
C914        C  0.11538020  0.63428576  0.21577295    -0.15700
C915        C  0.11572779  0.66676582  0.23688177     0.36600
N916        N  0.11263843  0.70097938  0.21855245    -0.89900
H917        H  0.11826840  0.69082816  0.29193853     0.17800
H918        H  0.11849464  0.57616062  0.21846830     0.17800
N919        N  0.12393447  0.56569759  0.29260054    -0.89000
H920        H  0.13620178  0.71663257  0.22589344     0.35100
H921        H  0.08864740  0.71412988  0.22891620     0.40200
H922        H  0.15033213  0.56572633  0.30576687     0.39800
H923        H  0.12416518  0.54440469  0.27297147     0.34700
C924        C  0.27205307  0.66208950  0.38071396    -0.27000
C925        C  0.29065483  0.62868116  0.37954407    -0.15100
C926        C  0.26920663  0.59636856  0.37977155     0.35600
C927        C  0.22970081  0.59832608  0.38195507    -0.26400
C928        C  0.21107350  0.63181006  0.38370317    -0.15700
C929        C  0.23259200  0.66405668  0.38351597     0.36600
N930        N  0.21454290  0.69865788  0.38740514    -0.89900
H931        H  0.28841327  0.68685268  0.38032022     0.17800
H932        H  0.21329889  0.57352471  0.38134684     0.17800
N933        N  0.28744692  0.56173855  0.37667617    -0.89000
H934        H  0.23433463  0.71965405  0.38602360     0.35100
H935        H  0.20303363  0.69983140  0.41441416     0.40200
H936        H  0.30034019  0.56034270  0.35026154     0.39800
H937        H  0.26762641  0.54073095  0.37739581     0.34700
C938        C  0.09688827  0.73278721  0.36128323    -0.27000
C939        C  0.11367738  0.71575559  0.39193222    -0.15100
C940        C  0.12783675  0.73696421  0.42229753     0.35600
C941        C  0.12715037  0.77484505  0.41963710    -0.26400
C942        C  0.11267392  0.79171649  0.38757344    -0.15700
C943        C  0.09657716  0.77035714  0.35859908     0.36600
N944        N  0.07972577  0.78603191  0.32609887    -0.89900
H945        H  0.08434501  0.71669320  0.33891674     0.17800
H946        H  0.13924437  0.79118528  0.44214025     0.17800
N947        N  0.14426248  0.72133613  0.45535724    -0.89000
H948        H  0.10066292  0.79982866  0.31138854     0.35100
H949        H  0.05909770  0.80435998  0.33507819     0.40200
H950        H  0.14413501  0.69311661  0.45409114     0.39800
H951        H  0.12745238  0.72875291  0.47833134     0.34700
C952        C  0.07676207  0.92154917  0.58553863     0.41800
N953        N  0.06383511  0.96460345  0.54766969     0.00700
C954        C  0.40127883  0.56745388  0.54078075    -0.07200
H955        H  0.37826215  0.92895595  0.52283065     0.06200
C956        C  0.45820712  0.93452070  0.90311928    -0.07600
Co957      Co  0.49248781  0.00262462  0.56853333     0.74200
N958        N  0.42721796  0.96196976  0.53527043    -0.26700
Co959      Co  0.42953162  0.50123686  0.99354086     0.74100
C960        C  0.42237130  0.91744956  0.91356197     0.41900
N961        N  0.04700550  0.96368594  0.93582734     0.00300
N962        N  0.43428824  0.96155293  0.95173513     0.00400
N963        N  0.44227971  0.56645934  0.58957660    -0.47600
H964        H  0.02223225  0.93128269  0.61947296     0.06200
N965        N  0.45124111  0.96252772  0.56365236     0.00700
N966        N  0.43328582  0.54048988  0.95193642     0.00400
C967        C  0.42036270  0.58328602  0.91355633     0.42000
N968        N  0.07126793  0.96442445  0.96400503    -0.26200
C969        C  0.03923994  0.56930549  0.59806986    -0.07100
N970        N  0.08975302  0.94011792  0.55566133    -0.47300
N971        N  0.40745596  0.56498592  0.94370637    -0.47500
C972        C  0.07471373  0.58691870  0.58741328     0.41800
N973        N  0.45028541  0.54122714  0.56417034     0.00700
N974        N  0.06923976  0.54330179  0.96479366    -0.26200
N975        N  0.03500957  0.96394214  0.57113997    -0.26700
N976        N  0.04549540  0.54247964  0.93619013     0.00300
H977        H  0.11725666  0.57712283  0.97810786     0.06200
H978        H  0.47481457  0.57311969  0.87971354     0.06200
N979        N  0.42648597  0.54089180  0.53558682    -0.26800
N980        N  0.46305443  0.96162909  0.92817384    -0.26400
N981        N  0.06240664  0.54354143  0.54832974     0.00700
C982        C  0.41328701  0.91890937  0.57637558     0.42100
C983        C  0.09735054  0.93864352  0.95797484    -0.07600
N984        N  0.46203112  0.54085950  0.92839639    -0.26400
H985        H  0.47645546  0.92866904  0.87944787     0.06200
N986        N  0.44357981  0.93765212  0.58903590    -0.47600
H987        H  0.12161550  0.93355167  0.97558087     0.06200
C988        C  0.08265945  0.58686159  0.92424203     0.41900
C989        C  0.04046669  0.93743072  0.59597815    -0.07100
Co990      Co  0.06744599  0.00398658  0.50629687     0.73800
N991        N  0.05528131  0.93880681  0.91017183    -0.47300
C992        C  0.41194543  0.58439217  0.57658783     0.42200
N993        N  0.08754811  0.56899054  0.55665094    -0.47300
Co994      Co  0.00451716  0.50211227  0.93142454     0.73900
C995        C  0.45660534  0.56721308  0.90328915    -0.07600
C996        C  0.40221206  0.93513163  0.54067643    -0.07200
N997        N  0.03398908  0.54290671  0.57226644    -0.26700
N998        N  0.40909944  0.93606732  0.94365642    -0.47500
H999        H  0.37753644  0.57308899  0.52265143     0.06200
C1000       C  0.09367799  0.57061002  0.95990068    -0.07600
Cl1001     Cl  0.99848973  0.50244635  0.49995402    -0.50600
C1002       C  0.08650534  0.92159147  0.92221385     0.41900
H1003       H  0.02126079  0.57453875  0.62209068     0.06100
N1004       N  0.05289863  0.56766760  0.91103069    -0.47300
C1005       C  0.10545920  0.61282826  0.90105751     0.85800
C1006       C  0.14835506  0.60856323  0.90558360    -0.54400
C1007       C  0.16911673  0.63232325  0.88475149     0.08700
C1008       C  0.14476811  0.65787421  0.86099909     0.19700
C1009       C  0.09745599  0.65261035  0.91051859    -0.55100
C1010       C  0.11808038  0.67615955  0.88953683     0.08800
C1011       C  0.09860223  0.60920373  0.85842211    -0.54700
C1012       C  0.11957182  0.63249043  0.83726606     0.09400
H1013       H  0.16121490  0.58848139  0.92356986     0.13900
H1014       H  0.16127456  0.67709876  0.84370829    -0.00300
H1015       H  0.07696634  0.66140942  0.93139643     0.14200
H1016       H  0.07899527  0.58983885  0.84602883     0.14000
C1017       C  0.10832585  0.89505493  0.89823992     0.85800
C1018       C  0.10047630  0.89978432  0.85607531    -0.54400
C1019       C  0.11897373  0.87577554  0.83366514     0.08700
C1020       C  0.14341785  0.84867033  0.85526021     0.19700
C1021       C  0.09834339  0.85555034  0.90656344    -0.55100
C1022       C  0.11659616  0.83132570  0.88388205     0.08800
C1023       C  0.15173100  0.89696819  0.90161047    -0.54700
C1024       C  0.17056166  0.87233718  0.87914225     0.09400
H1025       H  0.08267055  0.92088516  0.84464456     0.13900
H1026       H  0.15706206  0.82797070  0.83720139    -0.00300
H1027       H  0.07875076  0.84743218  0.92842843     0.14200
H1028       H  0.16610281  0.91620029  0.91997407     0.14000
C1029       C  0.10002475  0.89586330  0.60847550     0.85800
C1030       C  0.14288220  0.89918566  0.60217226    -0.54400
C1031       C  0.16389507  0.87619400  0.62358745     0.08700
C1032       C  0.13983678  0.85124401  0.64837851     0.19700
C1033       C  0.09074115  0.85588552  0.60057418    -0.55100
C1034       C  0.11169978  0.83245602  0.62135500     0.08800
C1035       C  0.09497870  0.90095680  0.65113018    -0.54700
C1036       C  0.11567488  0.87741802  0.67186971     0.09400
H1037       H  0.15550120  0.91829123  0.58284876     0.13900
H1038       H  0.15648246  0.83221929  0.66574570    -0.00300
H1039       H  0.07014332  0.84694721  0.57981094     0.14200
H1040       H  0.07689371  0.92131127  0.66395644     0.14000
C1041       C  0.09846321  0.61293539  0.61062897     0.85800
C1042       C  0.09247120  0.61054259  0.65340577    -0.54400
C1043       C  0.11425646  0.63420371  0.67395589     0.08700
C1044       C  0.14018346  0.65790604  0.64962486     0.19700
C1045       C  0.09165728  0.65287239  0.60122033    -0.55100
C1046       C  0.11375346  0.67639280  0.62143078     0.08800
C1047       C  0.14116084  0.60734797  0.60536582    -0.54700
C1048       C  0.16301635  0.63062734  0.62606933     0.09400
H1049       H  0.07330687  0.59141886  0.66641068     0.13900
H1050       H  0.15795697  0.67741319  0.66566219    -0.00300
H1051       H  0.07138792  0.66175086  0.58035806     0.14200
H1052       H  0.15321017  0.58664274  0.58710449     0.14000
C1053       C  0.39675531  0.60862380  0.89034680     0.85800
C1054       C  0.40012957  0.60266067  0.84749167    -0.54400
C1055       C  0.37812707  0.62542210  0.82669673     0.08700
C1056       C  0.35537483  0.65235395  0.85098892     0.19700
C1057       C  0.40653818  0.64869716  0.89665701    -0.55100
C1058       C  0.38483544  0.67159535  0.87605116     0.08800
C1059       C  0.35428528  0.60570440  0.89857886    -0.54700
C1060       C  0.33250284  0.62824495  0.87763148     0.09400
H1061       H  0.41956703  0.58340970  0.83503863     0.13900
H1062       H  0.33769161  0.67116178  0.83441615    -0.00300
H1063       H  0.42840427  0.65814622  0.91583515     0.14200
H1064       H  0.34240115  0.58734901  0.91910598     0.14000
C1065       C  0.38934029  0.61091971  0.59947244     0.85800
C1066       C  0.34649831  0.60595595  0.59545574    -0.54400
C1067       C  0.32594180  0.63050672  0.61572330     0.08700
C1068       C  0.35025549  0.65717933  0.63897168     0.19700
C1069       C  0.39719295  0.65032132  0.58914018    -0.55100
C1070       C  0.37670899  0.67454732  0.60974625     0.08800
C1071       C  0.39649049  0.60890364  0.64207809    -0.54700
C1072       C  0.37576544  0.63283888  0.66309957     0.09400
H1073       H  0.33367059  0.58406826  0.57931168     0.13900
H1074       H  0.33330500  0.67698468  0.65545826    -0.00300
H1075       H  0.41744734  0.65841535  0.56786662     0.14200
H1076       H  0.41538470  0.58938675  0.65471981     0.14000
C1077       C  0.39083302  0.89310976  0.60018517     0.85800
C1078       C  0.39944321  0.89691084  0.64248995    -0.54400
C1079       C  0.37973564  0.87340824  0.66429687     0.08700
C1080       C  0.35298213  0.84843754  0.64208315     0.19700
C1081       C  0.39801409  0.85311296  0.59053429    -0.55100
C1082       C  0.37837865  0.82977454  0.61276722     0.08800
C1083       C  0.34778126  0.89766555  0.59745040    -0.54700
C1084       C  0.32775553  0.87407221  0.61926629     0.09400
H1085       H  0.41871360  0.91687105  0.65441803     0.13900
H1086       H  0.33726538  0.82942492  0.66035557    -0.00300
H1087       H  0.41727148  0.84406229  0.56862778     0.14200
H1088       H  0.33432400  0.91763429  0.57975691     0.14000
C1089       C  0.39935740  0.89080472  0.89042707     0.85800
C1090       C  0.35669981  0.89136889  0.89914644    -0.54400
C1091       C  0.33560458  0.86719420  0.87835739     0.08700
C1092       C  0.35976505  0.84541327  0.84990325     0.19700
C1093       C  0.41111256  0.85107588  0.89526518    -0.55100
C1094       C  0.39019672  0.82737233  0.87401768     0.08800
C1095       C  0.40177246  0.89763841  0.84802506    -0.54700
C1096       C  0.38107609  0.87402030  0.82677983     0.09400
H1097       H  0.34433801  0.91050110  0.91888629     0.13900
H1098       H  0.34398595  0.82547193  0.83239471    -0.00300
H1099       H  0.43293964  0.84241070  0.91460876     0.14200
H1100       H  0.41836061  0.91925752  0.83570752     0.14000
C1101       C  0.34840901  0.88237422  0.72540038    -0.27000
C1102       C  0.38155912  0.87381478  0.70583647    -0.15100
C1103       C  0.41511626  0.86682631  0.72623705     0.35600
C1104       C  0.41397308  0.86740477  0.76566462    -0.26400
C1105       C  0.38060710  0.87548884  0.78518351    -0.15700
C1106       C  0.34793242  0.88500794  0.76470956     0.36600
N1107       N  0.31460745  0.89919459  0.78250319    -0.89900
H1108       H  0.32301720  0.88886857  0.70984637     0.17800
H1109       H  0.43940467  0.86122079  0.78127158     0.17800
N1110       N  0.45055192  0.85868520  0.70832100    -0.89000
H1111       H  0.30915681  0.92450336  0.77080472     0.35100
H1112       H  0.31946111  0.90457749  0.81094969     0.40200
H1113       H  0.44813737  0.85721058  0.67912938     0.39800
H1114       H  0.45890612  0.83295779  0.71697769     0.34700
C1115       C  0.40088934  0.73225748  0.63461088    -0.27000
C1116       C  0.38116768  0.71405152  0.60610646    -0.15100
C1117       C  0.36437838  0.73407959  0.57678128     0.35600
C1118       C  0.36500844  0.77201805  0.57888059    -0.26400
C1119       C  0.38162839  0.79007386  0.60957467    -0.15700
C1120       C  0.40035826  0.77007698  0.63738208     0.36600
N1121       N  0.41865277  0.78814601  0.66835862    -0.89900
H1122       H  0.41610593  0.71673875  0.65525209     0.17800
H1123       H  0.35155243  0.78748964  0.55690856     0.17800
N1124       N  0.34603557  0.71712480  0.54508062    -0.89000
H1125       H  0.43327668  0.76958793  0.68487122     0.35100
H1126       H  0.39744684  0.79879014  0.68557314     0.40200
H1127       H  0.34964457  0.68915495  0.54538091     0.39800
H1128       H  0.35976979  0.72592477  0.52078767     0.34700
C1129       C  0.37852885  0.66001716  0.76718360    -0.27000
C1130       C  0.37738718  0.62617626  0.78475275    -0.15100
C1131       C  0.37325802  0.59467617  0.76194776     0.35600
C1132       C  0.37278460  0.59774221  0.72268869    -0.26400
C1133       C  0.37514185  0.63159232  0.70510301    -0.15700
C1134       C  0.37684703  0.66303396  0.72788462     0.36600
N1135       N  0.37749407  0.69818994  0.71153993    -0.89900
H1136       H  0.38099349  0.68452491  0.78406295     0.17800
H1137       H  0.36977071  0.57334082  0.70572159     0.17800
N1138       N  0.36722170  0.55950659  0.77748507    -0.89000
H1139       H  0.40180435  0.71157984  0.72101971     0.35100
H1140       H  0.35416305  0.71257748  0.72162984     0.40200
H1141       H  0.34483018  0.56092896  0.79656407     0.39800
H1142       H  0.39152659  0.55114052  0.79136697     0.34700
C1143       C  0.36713422  0.76998248  0.90097521    -0.27000
C1144       C  0.39263689  0.78756796  0.87716205    -0.15100
C1145       C  0.41732146  0.76699902  0.85441620     0.37400
C1146       C  0.41506487  0.72890553  0.85505979    -0.26400
C1147       C  0.38874249  0.71141570  0.87814403    -0.15700
C1148       C  0.36530921  0.73200116  0.90207322     0.36600
N1149       N  0.33943061  0.71420335  0.92696472    -0.89900
H1150       H  0.34822957  0.78601941  0.91834006     0.17800
H1151       H  0.43323781  0.71281219  0.83698875     0.17800
N1152       N  0.44412269  0.78484889  0.83054775    -0.89000
H1153       H  0.32397773  0.73322539  0.94251981     0.35100
H1154       H  0.35535249  0.69955855  0.94630797     0.40200
H1155       H  0.42891594  0.79886945  0.81018172     0.39800
H1156       H  0.46059288  0.76581337  0.81609516     0.34700
C1157       C  0.22199693  0.63253124  0.58883301    -0.27000
C1158       C  0.20479585  0.63023427  0.62423929    -0.15100
C1159       C  0.22770190  0.62697898  0.65664853     0.35600
C1160       C  0.26701995  0.62719035  0.65296138    -0.26400
C1161       C  0.28418933  0.62983409  0.61755795    -0.15700
C1162       C  0.26122281  0.63225707  0.58508606     0.36600
N1163       N  0.27666638  0.63585442  0.54809802    -0.89900
H1164       H  0.20472012  0.63501861  0.56381491     0.17800
H1165       H  0.28435110  0.62471077  0.67794827     0.17800
N1166       N  0.21207327  0.62169616  0.69334803    -0.89000
H1167       H  0.29228515  0.61280311  0.54130253     0.35100
H1168       H  0.29437867  0.65842342  0.54795561     0.40200
H1169       H  0.19374134  0.59948164  0.69223698     0.39800
H1170       H  0.19701100  0.64470440  0.70140108     0.34700
C1171       C  0.14090267  0.77407745  0.60315757    -0.27000
C1172       C  0.10936764  0.79255261  0.61713848    -0.15100
C1173       C  0.07747832  0.77265534  0.62889959     0.35600
C1174       C  0.07913075  0.73453681  0.62909667    -0.26400
C1175       C  0.11182662  0.71622539  0.61748115    -0.15700
C1176       C  0.14262274  0.73630602  0.60345951     0.36600
N1177       N  0.17583749  0.71910778  0.58902526    -0.89900
H1178       H  0.16446377  0.78913872  0.59195912     0.17800
H1179       H  0.05528259  0.71906088  0.63931161     0.17800
N1180       N  0.04414735  0.79108688  0.64169851    -0.89000
H1181       H  0.16781988  0.70073533  0.56789043     0.35100
H1182       H  0.18868952  0.70493081  0.61076368     0.40200
H1183       H  0.03250953  0.80440548  0.61866537     0.39800
H1184       H  0.02380315  0.77247651  0.65057344     0.34700
C1185       C  0.26662096  0.90734904  0.62372050    -0.27000
C1186       C  0.28575172  0.87413820  0.62135767    -0.15100
C1187       C  0.26463717  0.84164043  0.62138038     0.35600
C1188       C  0.22510509  0.84312730  0.62358069    -0.26400
C1189       C  0.20591658  0.87624695  0.62407618    -0.15700
C1190       C  0.22698896  0.90877310  0.62534982     0.36600
N1191       N  0.20818657  0.94304220  0.62934702    -0.89900
H1192       H  0.28271751  0.93232065  0.62486124     0.17800
H1193       H  0.20926344  0.81816337  0.62386015     0.17800
N1194       N  0.28313988  0.80724701  0.61758735    -0.89000
H1195       H  0.22775651  0.96427855  0.63008910     0.35100
H1196       H  0.19450367  0.94325775  0.65541515     0.40200
H1197       H  0.29475808  0.80620681  0.59060141     0.39800
H1198       H  0.26362891  0.78600462  0.61890473     0.34700
C1199       C  0.14518172  0.89422571  0.73254207    -0.27000
C1200       C  0.11513221  0.87759983  0.71329259    -0.15100
C1201       C  0.08482628  0.86249419  0.73381914     0.35600
C1202       C  0.08642035  0.86271143  0.77315772    -0.26400
C1203       C  0.11734837  0.87769118  0.79229994    -0.15700
C1204       C  0.14589010  0.89546100  0.77205069     0.36600
N1205       N  0.17476742  0.91545579  0.79173375    -0.89900
H1206       H  0.16764572  0.90691086  0.71667171     0.17800
H1207       H  0.06328288  0.85108846  0.78885863     0.17800
N1208       N  0.05242873  0.84626970  0.71595308    -0.89000
H1209       H  0.19351533  0.92722100  0.77269192     0.35100
H1210       H  0.16171631  0.93674290  0.80628777     0.40200
H1211       H  0.05401878  0.84760850  0.68673562     0.39800
H1212       H  0.02887943  0.86153412  0.72381536     0.34700
C1213       C  0.27285134  0.85523954  0.84814269    -0.27000
C1214       C  0.29329871  0.86446562  0.88065772    -0.15100
C1215       C  0.27283027  0.87204605  0.91403811     0.35600
C1216       C  0.23309461  0.87446028  0.91271418    -0.26400
C1217       C  0.21283857  0.86830156  0.87911492    -0.15700
C1218       C  0.23342691  0.85754832  0.84674077     0.36600
N1219       N  0.21513121  0.84994570  0.81163993    -0.89900
H1220       H  0.28730226  0.84750942  0.82258947     0.17800
H1221       H  0.21784954  0.88056365  0.93839435     0.17800
N1222       N  0.29216312  0.87610925  0.94940032    -0.89000
H1223       H  0.22730872  0.86634136  0.79111283     0.35100
H1224       H  0.22090487  0.82306904  0.80416446     0.40200
H1225       H  0.30504108  0.85136748  0.95528865     0.39800
H1226       H  0.27304558  0.88119502  0.97121420     0.34700
C1227       C  0.11794693  0.66560678  0.77628748    -0.27000
C1228       C  0.11896141  0.63250530  0.79532854    -0.15100
C1229       C  0.11975124  0.59989766  0.77412503     0.35600
C1230       C  0.11754825  0.60116654  0.73466162    -0.26400
C1231       C  0.11537991  0.63428572  0.71577316    -0.15700
C1232       C  0.11572727  0.66676579  0.73688194     0.36600
N1233       N  0.11263763  0.70097929  0.71855258    -0.89900
H1234       H  0.11826786  0.69082819  0.79193869     0.17800
H1235       H  0.11849456  0.57616058  0.71846856     0.17800
N1236       N  0.12393452  0.56569766  0.79260087    -0.89000
H1237       H  0.13620087  0.71663269  0.72589351     0.35100
H1238       H  0.08864661  0.71412973  0.72891642     0.40200
H1239       H  0.15033225  0.56572653  0.80576711     0.39800
H1240       H  0.12416529  0.54440472  0.77297183     0.34700
C1241       C  0.27205300  0.66208955  0.88071436    -0.27000
C1242       C  0.29065475  0.62868122  0.87954434    -0.15100
C1243       C  0.26920655  0.59636866  0.87977179     0.35600
C1244       C  0.22970075  0.59832625  0.88195521    -0.26400
C1245       C  0.21107342  0.63181016  0.88370344    -0.15700
C1246       C  0.23259195  0.66405675  0.88351645     0.36600
N1247       N  0.21454288  0.69865797  0.88740575    -0.89900
H1248       H  0.28841323  0.68685274  0.88032066     0.17800
H1249       H  0.21329877  0.57352485  0.88134677     0.17800
N1250       N  0.28744676  0.56173863  0.87667642    -0.89000
H1251       H  0.23433464  0.71965413  0.88602437     0.35100
H1252       H  0.20303350  0.69983140  0.91441472     0.40200
H1253       H  0.30033999  0.56034277  0.85026176     0.39800
H1254       H  0.26762619  0.54073105  0.87739623     0.34700
C1255       C  0.09688809  0.73278714  0.86128340    -0.27000
C1256       C  0.11367718  0.71575563  0.89193245    -0.15100
C1257       C  0.12783648  0.73696429  0.92229774     0.35600
C1258       C  0.12715015  0.77484514  0.91963722    -0.26400
C1259       C  0.11267377  0.79171650  0.88757349    -0.15700
C1260       C  0.09657709  0.77035709  0.85859909     0.36600
N1261       N  0.07972588  0.78603177  0.82609875    -0.89900
H1262       H  0.08434480  0.71669305  0.83891703     0.17800
H1263       H  0.13924413  0.79118541  0.94214036     0.17800
N1264       N  0.14426205  0.72133623  0.95535755    -0.89000
H1265       H  0.10066307  0.79982848  0.81138844     0.35100
H1266       H  0.05909775  0.80435986  0.83507790     0.40200
H1267       H  0.14413451  0.69311673  0.95409151     0.39800
H1268       H  0.12745185  0.72875303  0.97833154     0.34700
C1269       C  0.57676188  0.42154892  0.08553866     0.41800
N1270       N  0.56383500  0.46460336  0.04766988     0.00700
C1271       C  0.90127901  0.06745382  0.04078054    -0.07200
H1272       H  0.87826210  0.42895599  0.02283063     0.06200
C1273       C  0.95820715  0.43452043  0.40311945    -0.07600
Co1274     Co  0.99248774  0.50262453  0.06853342     0.74200
N1275       N  0.92721791  0.46196972  0.03527047    -0.26700
Co1276     Co  0.92953159  0.00123686  0.49354077     0.74100
C1277       C  0.92237129  0.41744939  0.41356208     0.41900
N1278       N  0.54700558  0.46368605  0.43582744     0.00300
N1279       N  0.93428817  0.46155285  0.45173514     0.00400
N1280       N  0.94227986  0.06645927  0.08957636    -0.47600
H1281       H  0.52223213  0.43128241  0.11947302     0.06200
N1282       N  0.95124103  0.46252768  0.06365242     0.00700
N1283       N  0.93328574  0.04048986  0.45193630     0.00400
C1284       C  0.92036266  0.08328591  0.41355612     0.42000
N1285       N  0.57126808  0.46442463  0.46400511    -0.26200
C1286       C  0.53924014  0.06930549  0.09806977    -0.07100
N1287       N  0.58975287  0.44011776  0.05566147    -0.47300
N1288       N  0.90745589  0.06498590  0.44370620    -0.47500
C1289       C  0.57471397  0.08691859  0.08741320     0.41800
N1290       N  0.95028549  0.04122702  0.06417015     0.00700
N1291       N  0.56923969  0.04330198  0.46479352    -0.26200
N1292       N  0.53500947  0.46394206  0.07114015    -0.26700
N1293       N  0.54549537  0.04247982  0.43619000     0.00300
H1294       H  0.61725662  0.07712306  0.47810766     0.06200
H1295       H  0.97481450  0.07311941  0.37971328     0.06200
N1296       N  0.92648607  0.04089167  0.03558664    -0.26800
N1297       N  0.96305443  0.46162893  0.42817392    -0.26400
N1298       N  0.56240671  0.04354138  0.04832965     0.00700
C1299       C  0.91328694  0.41890930  0.07637556     0.42100
C1300       C  0.59735077  0.43864372  0.45797492    -0.07600
N1301       N  0.96203103  0.04085941  0.42839625    -0.26400
H1302       H  0.97645556  0.42866857  0.37944812     0.06200
N1303       N  0.94357971  0.43765204  0.08903592    -0.47600
H1304       H  0.62161573  0.43355189  0.47558087     0.06200
C1305       C  0.58265945  0.08686171  0.42424181     0.41900
C1306       C  0.54046660  0.43743055  0.09597821    -0.07100
Co1307     Co  0.56744596  0.50398646  0.00629705     0.73800
N1308       N  0.55528136  0.43880689  0.41017196    -0.47300
C1309       C  0.91194566  0.08439214  0.07658756     0.42200
N1310       N  0.58754829  0.06899039  0.05665087    -0.47300
Co1311     Co  0.50451712  0.00211238  0.43142443     0.73900
C1312       C  0.95660527  0.06721292  0.40328893    -0.07600
C1313       C  0.90221200  0.43513161  0.04067644    -0.07200
N1314       N  0.53398915  0.04290673  0.07226634    -0.26700
N1315       N  0.90909935  0.43606724  0.44365643    -0.47500
H1316       H  0.87753665  0.07308903  0.02265118     0.06200
C1317       C  0.59367791  0.07061021  0.45990047    -0.07600
Cl1318     Cl  0.49848969  0.00244641  0.99995395    -0.50600
C1319       C  0.58650547  0.42159163  0.42221396     0.41900
H1320       H  0.52126099  0.07453879  0.12209062     0.06100
N1321       N  0.55289864  0.06766771  0.41103051    -0.47300
C1322       C  0.60545914  0.11282841  0.40105731     0.85800
C1323       C  0.64835498  0.10856340  0.40558340    -0.54400
C1324       C  0.66911666  0.13232344  0.38475130     0.08700
C1325       C  0.64476804  0.15787437  0.36099883     0.19700
C1326       C  0.59745590  0.15261052  0.41051839    -0.55100
C1327       C  0.61808029  0.17615973  0.38953655     0.08800
C1328       C  0.59860219  0.10920386  0.35842190    -0.54700
C1329       C  0.61957177  0.13249054  0.33726586     0.09400
H1330       H  0.66121483  0.08848158  0.42356967     0.13900
H1331       H  0.66127444  0.17709893  0.34370802    -0.00300
H1332       H  0.57696637  0.16140956  0.43139630     0.14200
H1333       H  0.57899529  0.08983892  0.34602857     0.14000
C1334       C  0.60832593  0.39505509  0.39824000     0.85800
C1335       C  0.60047634  0.39978457  0.35607543    -0.54400
C1336       C  0.61897371  0.37577580  0.33366519     0.08700
C1337       C  0.64341782  0.34867054  0.35526016     0.19700
C1338       C  0.59834342  0.35555052  0.40656346    -0.55100
C1339       C  0.61659615  0.33132589  0.38388202     0.08800
C1340       C  0.65173109  0.39696832  0.40161053    -0.54700
C1341       C  0.67056169  0.37233735  0.37914221     0.09400
H1342       H  0.58267065  0.42088550  0.34464473     0.13900
H1343       H  0.65706200  0.32797097  0.33720124    -0.00300
H1344       H  0.57875083  0.34743235  0.42842850     0.14200
H1345       H  0.66610294  0.41620033  0.41997418     0.14000
C1346       C  0.60002462  0.39586316  0.10847558     0.85800
C1347       C  0.64288205  0.39918556  0.10217227    -0.54400
C1348       C  0.66389496  0.37619398  0.12358749     0.08700
C1349       C  0.63983673  0.35124407  0.14837865     0.19700
C1350       C  0.59074109  0.35588535  0.10057443    -0.55100
C1351       C  0.61169974  0.33245592  0.12135527     0.08800
C1352       C  0.59497859  0.40095680  0.15113026    -0.54700
C1353       C  0.61567487  0.37741814  0.17186981     0.09400
H1354       H  0.65550100  0.41829115  0.08284877     0.13900
H1355       H  0.65648250  0.33221948  0.16574592    -0.00300
H1356       H  0.57014321  0.34694694  0.07981124     0.14200
H1357       H  0.57689352  0.42131122  0.16395644     0.14000
C1358       C  0.59846343  0.11293532  0.11062886     0.85800
C1359       C  0.59247144  0.11054245  0.15340569    -0.54400
C1360       C  0.61425671  0.13420362  0.17395577     0.08700
C1361       C  0.64018365  0.15790596  0.14962469     0.19700
C1362       C  0.59165742  0.15287234  0.10122028    -0.55100
C1363       C  0.61375360  0.17639274  0.12143074     0.08800
C1364       C  0.64116109  0.10734796  0.10536565    -0.54700
C1365       C  0.66301657  0.13062735  0.12606912     0.09400
H1366       H  0.57330714  0.09141878  0.16641060     0.13900
H1367       H  0.65795722  0.17741315  0.16566200    -0.00300
H1368       H  0.57138798  0.16175086  0.08035810     0.14200
H1369       H  0.65321041  0.08664269  0.08710438     0.14000
C1370       C  0.89675527  0.10862365  0.39034654     0.85800
C1371       C  0.90012954  0.10266048  0.34749144    -0.54400
C1372       C  0.87812698  0.12542186  0.32669651     0.08700
C1373       C  0.85537478  0.15235373  0.35098869     0.19700
C1374       C  0.90653815  0.14869700  0.39665666    -0.55100
C1375       C  0.88483541  0.17159519  0.37605082     0.08800
C1376       C  0.85428525  0.10570426  0.39857867    -0.54700
C1377       C  0.83250277  0.12824479  0.37763130     0.09400
H1378       H  0.91956705  0.08340954  0.33503837     0.13900
H1379       H  0.83769152  0.17116152  0.33441587    -0.00300
H1380       H  0.92840430  0.15814604  0.41583476     0.14200
H1381       H  0.84240116  0.08734894  0.41910586     0.14000
C1382       C  0.88934055  0.11091963  0.09947222     0.85800
C1383       C  0.84649858  0.10595593  0.09545544    -0.54400
C1384       C  0.82594207  0.13050669  0.11572308     0.08700
C1385       C  0.85025575  0.15717923  0.13897160     0.19700
C1386       C  0.89719333  0.15032129  0.08914013    -0.55100
C1387       C  0.87670933  0.17454725  0.10974624     0.08800
C1388       C  0.89649069  0.10890337  0.14207791    -0.54700
C1389       C  0.87576564  0.13283862  0.16309941     0.09400
H1390       H  0.83367088  0.08406828  0.07931132     0.13900
H1391       H  0.83330529  0.17698452  0.15545821    -0.00300
H1392       H  0.91744775  0.15841539  0.06786661     0.14200
H1393       H  0.91538478  0.08938637  0.15471963     0.14000
C1394       C  0.89083289  0.39310975  0.10018517     0.85800
C1395       C  0.89944305  0.39691101  0.14248994    -0.54400
C1396       C  0.87973546  0.37340848  0.16429694     0.08700
C1397       C  0.85298195  0.34843774  0.14208330     0.19700
C1398       C  0.89801396  0.35311290  0.09053444    -0.55100
C1399       C  0.87837844  0.32977459  0.11276744     0.08800
C1400       C  0.84778112  0.39766561  0.09745036    -0.54700
C1401       C  0.82775538  0.37407234  0.11926635     0.09400
H1402       H  0.91871343  0.41687128  0.15441793     0.13900
H1403       H  0.83726514  0.32942522  0.16035578    -0.00300
H1404       H  0.91727134  0.34406211  0.06862799     0.14200
H1405       H  0.83432389  0.41763430  0.07975683     0.14000
C1406       C  0.89935740  0.39080454  0.39042716     0.85800
C1407       C  0.85669983  0.39136860  0.39914655    -0.54400
C1408       C  0.83560460  0.36719393  0.37835745     0.08700
C1409       C  0.85976507  0.34541312  0.34990321     0.19700
C1410       C  0.91111264  0.35107573  0.39526515    -0.55100
C1411       C  0.89019679  0.32737218  0.37401761     0.08800
C1412       C  0.90177242  0.39763834  0.34802518    -0.54700
C1413       C  0.88107605  0.37402028  0.32677989     0.09400
H1414       H  0.84433802  0.41050073  0.41888652     0.13900
H1415       H  0.84398600  0.32547183  0.33239464    -0.00300
H1416       H  0.93293976  0.34241052  0.41460870     0.14200
H1417       H  0.91836051  0.41925752  0.33570766     0.14000
C1418       C  0.84840885  0.38237429  0.22540051    -0.27000
C1419       C  0.88155897  0.37381503  0.20583654    -0.15100
C1420       C  0.91511615  0.36682662  0.22623710     0.35600
C1421       C  0.91397305  0.36740516  0.26566468    -0.26400
C1422       C  0.88060703  0.37548901  0.28518358    -0.15700
C1423       C  0.84793226  0.38500794  0.26470968     0.36600
N1424       N  0.81460728  0.39919450  0.28250339    -0.89900
H1425       H  0.82301699  0.38886856  0.20984650     0.17800
H1426       H  0.93940466  0.36122133  0.28127161     0.17800
N1427       N  0.95055177  0.35868549  0.20832101    -0.89000
H1428       H  0.80915653  0.42450324  0.27080493     0.35100
H1429       H  0.81946103  0.40457743  0.31094984     0.40200
H1430       H  0.94813714  0.35721075  0.17912942     0.39800
H1431       H  0.95890600  0.33295816  0.21697783     0.34700
C1432       C  0.90088914  0.23225751  0.13461116    -0.27000
C1433       C  0.88116788  0.21405151  0.10610651    -0.15100
C1434       C  0.86437870  0.23407957  0.07678124     0.35600
C1435       C  0.86500855  0.27201805  0.07888065    -0.26400
C1436       C  0.88162806  0.29007387  0.10957498    -0.15700
C1437       C  0.90035776  0.27007701  0.13738251     0.36600
N1438       N  0.91865196  0.28814601  0.16835926    -0.89900
H1439       H  0.91610575  0.21673881  0.15525237     0.17800
H1440       H  0.85155272  0.28748960  0.05690847     0.17800
N1441       N  0.84603615  0.21712476  0.04508046    -0.89000
H1442       H  0.93327570  0.26958789  0.18487199     0.35100
H1443       H  0.89744590  0.29879022  0.18557359     0.40200
H1444       H  0.84964512  0.18915490  0.04538082     0.39800
H1445       H  0.85977053  0.22592471  0.02078761     0.34700
C1446       C  0.87852871  0.16001688  0.26718340    -0.27000
C1447       C  0.87738710  0.12617598  0.28475256    -0.15100
C1448       C  0.87325803  0.09467586  0.26194757     0.35600
C1449       C  0.87278472  0.09774188  0.22268850    -0.26400
C1450       C  0.87514201  0.13159201  0.20510282    -0.15700
C1451       C  0.87684702  0.16303367  0.22788446     0.36600
N1452       N  0.87749387  0.19818967  0.21153979    -0.89900
H1453       H  0.88099322  0.18452467  0.28406271     0.17800
H1454       H  0.86977084  0.07334049  0.20572144     0.17800
N1455       N  0.86722154  0.05950630  0.27748488    -0.89000
H1456       H  0.90180401  0.21157980  0.22101966     0.35100
H1457       H  0.85416264  0.21257703  0.22162952     0.40200
H1458       H  0.84482993  0.06092872  0.29656381     0.39800
H1459       H  0.89152633  0.05114013  0.29136691     0.34700
C1460       C  0.86713428  0.26998232  0.40097509    -0.27000
C1461       C  0.89263695  0.28756781  0.37716190    -0.15100
C1462       C  0.91732134  0.26699888  0.35441582     0.37400
C1463       C  0.91506470  0.22890539  0.35505931    -0.26400
C1464       C  0.88874247  0.21141555  0.37814370    -0.15700
C1465       C  0.86530933  0.23200097  0.40207304     0.36600
N1466       N  0.83943084  0.21420309  0.42696457    -0.89900
H1467       H  0.84822965  0.28601921  0.41833994     0.17800
H1468       H  0.93323750  0.21281206  0.33698810     0.17800
N1469       N  0.94412249  0.28484873  0.33054726    -0.89000
H1470       H  0.82397795  0.23322511  0.44251969     0.35100
H1471       H  0.85535277  0.19955833  0.44630785     0.40200
H1472       H  0.92891568  0.29886934  0.31018133     0.39800
H1473       H  0.96059249  0.26581317  0.31609453     0.34700
C1474       C  0.72199719  0.13253142  0.08883287    -0.27000
C1475       C  0.70479610  0.13023438  0.12423910    -0.15100
C1476       C  0.72770213  0.12697911  0.15664830     0.35600
C1477       C  0.76702016  0.12719050  0.15296112    -0.26400
C1478       C  0.78418959  0.12983415  0.11755771    -0.15700
C1479       C  0.76122308  0.13225724  0.08508587     0.36600
N1480       N  0.77666664  0.13585467  0.04809786    -0.89900
H1481       H  0.70472034  0.13501881  0.06381475     0.17800
H1482       H  0.78435130  0.12471101  0.17794807     0.17800
N1483       N  0.71207351  0.12169635  0.19334783    -0.89000
H1484       H  0.79228536  0.11280334  0.04130243     0.35100
H1485       H  0.79437891  0.15842369  0.04795547     0.40200
H1486       H  0.69374154  0.09948183  0.19223686     0.39800
H1487       H  0.69701129  0.14470464  0.20140086     0.34700
C1488       C  0.64090258  0.27407737  0.10315761    -0.27000
C1489       C  0.60936764  0.29255250  0.11713876    -0.15100
C1490       C  0.57747842  0.27265519  0.12889996     0.35600
C1491       C  0.57913092  0.23453668  0.12909694    -0.26400
C1492       C  0.61182672  0.21622531  0.11748124    -0.15700
C1493       C  0.64262270  0.23630596  0.10345945     0.36600
N1494       N  0.67583735  0.21910775  0.08902493    -0.89900
H1495       H  0.66446361  0.28913870  0.09195903     0.17800
H1496       H  0.55528283  0.21906067  0.13931201     0.17800
N1497       N  0.54414752  0.29108660  0.14169923    -0.89000
H1498       H  0.66781953  0.20073530  0.06789015     0.35100
H1499       H  0.68868948  0.20493067  0.11076324     0.40200
H1500       H  0.53250948  0.30440535  0.11866629     0.39800
H1501       H  0.52380345  0.27247613  0.15057422     0.34700
C1502       C  0.76662079  0.40734908  0.12372080    -0.27000
C1503       C  0.78575159  0.37413828  0.12135774    -0.15100
C1504       C  0.76463709  0.34164049  0.12138022     0.35600
C1505       C  0.72510504  0.34312730  0.12358060    -0.26400
C1506       C  0.70591647  0.37624694  0.12407628    -0.15700
C1507       C  0.72698879  0.40877309  0.12535012     0.36600
N1508       N  0.70818637  0.44304216  0.12934753    -0.89900
H1509       H  0.78271731  0.43232069  0.12486166     0.17800
H1510       H  0.70926342  0.31816333  0.12385993     0.17800
N1511       N  0.78313990  0.30724711  0.11758693    -0.89000
H1512       H  0.72775632  0.46427850  0.13008977     0.35100
H1513       H  0.69450347  0.44325753  0.15541566     0.40200
H1514       H  0.79475823  0.30620711  0.09060100     0.39800
H1515       H  0.76362902  0.28600460  0.11890420     0.34700
C1516       C  0.64518174  0.39422582  0.23254215    -0.27000
C1517       C  0.61513222  0.37759999  0.21329270    -0.15100
C1518       C  0.58482628  0.36249440  0.23381927     0.35600
C1519       C  0.58642029  0.36271165  0.27315787    -0.26400
C1520       C  0.61734829  0.37769147  0.29230003    -0.15700
C1521       C  0.64589003  0.39546126  0.27205075     0.36600
N1522       N  0.67476726  0.41545619  0.29173376    -0.89900
H1523       H  0.66764580  0.40691089  0.21667177     0.17800
H1524       H  0.56328285  0.35108870  0.28885877     0.17800
N1525       N  0.55242874  0.34626991  0.21595324    -0.89000
H1526       H  0.69351511  0.42722138  0.27269190     0.35100
H1527       H  0.66171603  0.43674330  0.30628762     0.40200
H1528       H  0.55401879  0.34760871  0.18673577     0.39800
H1529       H  0.52887945  0.36153429  0.22381568     0.34700
C1530       C  0.77285136  0.35523943  0.34814268    -0.27000
C1531       C  0.79329874  0.36446529  0.38065778    -0.15100
C1532       C  0.77283028  0.37204554  0.41403824     0.35600
C1533       C  0.73309461  0.37446004  0.41271431    -0.26400
C1534       C  0.71283859  0.36830164  0.37911493    -0.15700
C1535       C  0.73342693  0.35754843  0.34674074     0.36600
N1536       N  0.71513123  0.34994611  0.31163984    -0.89900
H1537       H  0.78730227  0.34750939  0.32258945     0.17800
H1538       H  0.71784957  0.38056333  0.43839447     0.17800
N1539       N  0.79216319  0.37610843  0.44940045    -0.89000
H1540       H  0.72730891  0.36634183  0.29111288     0.35100
H1541       H  0.72090469  0.32306944  0.30416422     0.40200
H1542       H  0.80504109  0.35136657  0.45528862     0.39800
H1543       H  0.77304570  0.38119410  0.47121439     0.34700
C1544       C  0.61794701  0.16560681  0.27628728    -0.27000
C1545       C  0.61896145  0.13250534  0.29532837    -0.15100
C1546       C  0.61975133  0.09989768  0.27412486     0.35600
C1547       C  0.61754835  0.10116656  0.23466148    -0.26400
C1548       C  0.61538007  0.13428575  0.21577300    -0.15700
C1549       C  0.61572743  0.16676581  0.23688178     0.36600
N1550       N  0.61263798  0.20097936  0.21855242    -0.89900
H1551       H  0.61826793  0.19082826  0.29193847     0.17800
H1552       H  0.61849468  0.07616058  0.21846844     0.17800
N1553       N  0.62393460  0.06569767  0.29260069    -0.89000
H1554       H  0.63620123  0.21663271  0.22589346     0.35100
H1555       H  0.58864694  0.21412987  0.22891618     0.40200
H1556       H  0.65033232  0.06572651  0.30576695     0.39800
H1557       H  0.62416543  0.04440476  0.27297160     0.34700
C1558       C  0.77205299  0.16208952  0.38071401    -0.27000
C1559       C  0.79065467  0.12868116  0.37954423    -0.15100
C1560       C  0.76920641  0.09636860  0.37977181     0.35600
C1561       C  0.72970058  0.09832623  0.38195520    -0.26400
C1562       C  0.71107333  0.13181024  0.38370326    -0.15700
C1563       C  0.73259192  0.16405681  0.38351603     0.36600
N1564       N  0.71454295  0.19865809  0.38740504    -0.89900
H1565       H  0.78841328  0.18685265  0.38032018     0.17800
H1566       H  0.71329859  0.07352488  0.38134690     0.17800
N1567       N  0.78744665  0.06173857  0.37667665    -0.89000
H1568       H  0.73433479  0.21965415  0.38602360     0.35100
H1569       H  0.70303358  0.19983168  0.41441398     0.40200
H1570       H  0.80034000  0.06034259  0.35026203     0.39800
H1571       H  0.76762611  0.04073097  0.37739648     0.34700
C1572       C  0.59688812  0.23278741  0.36128314    -0.27000
C1573       C  0.61367722  0.21575580  0.39193216    -0.15100
C1574       C  0.62783658  0.23696444  0.42229745     0.35600
C1575       C  0.62715027  0.27484525  0.41963700    -0.26400
C1576       C  0.61267375  0.29171670  0.38757340    -0.15700
C1577       C  0.59657700  0.27035736  0.35859903     0.36600
N1578       N  0.57972563  0.28603218  0.32609885    -0.89900
H1579       H  0.58434486  0.21669341  0.33891669     0.17800
H1580       H  0.63924433  0.29118548  0.44214015     0.17800
N1581       N  0.64426222  0.22133637  0.45535722    -0.89000
H1582       H  0.60066276  0.29982901  0.31138861     0.35100
H1583       H  0.55909757  0.30436024  0.33507820     0.40200
H1584       H  0.64413476  0.19311688  0.45409110     0.39800
H1585       H  0.62745201  0.22875311  0.47833121     0.34700
C1586       C  0.57676201  0.42154911  0.58553865     0.41800
N1587       N  0.56383506  0.46460349  0.54766983     0.00700
C1588       C  0.90127862  0.06745362  0.54078068    -0.07200
H1589       H  0.87826195  0.42895614  0.52283058     0.06200
C1590       C  0.95820732  0.43452055  0.90311927    -0.07600
Co1591     Co  0.99248780  0.50262454  0.56853334     0.74200
N1592       N  0.92721780  0.46196986  0.53527042    -0.26700
Co1593     Co  0.92953163  0.00123693  0.99354071     0.74100
C1594       C  0.92237142  0.41744951  0.91356187     0.41900
N1595       N  0.54700565  0.46368601  0.93582741     0.00300
N1596       N  0.93428837  0.46155270  0.95173521     0.00400
N1597       N  0.94227965  0.06645925  0.58957644    -0.47600
H1598       H  0.52223225  0.43128256  0.61947302     0.06200
N1599       N  0.95124106  0.46252768  0.56365226     0.00700
N1600       N  0.93328593  0.04048999  0.95193635     0.00400
C1601       C  0.92036282  0.08328607  0.91355622     0.42000
N1602       N  0.57126807  0.46442447  0.96400513    -0.26200
C1603       C  0.53924003  0.06930557  0.59806978    -0.07100
N1604       N  0.58975294  0.44011789  0.55566141    -0.47300
N1605       N  0.90745606  0.06498601  0.94370627    -0.47500
C1606       C  0.57471377  0.08691875  0.58741317     0.41800
N1607       N  0.95028538  0.04122706  0.56417019     0.00700
N1608       N  0.56923976  0.04330194  0.96479348    -0.26200
N1609       N  0.53500954  0.46394216  0.57114011    -0.26700
N1610       N  0.54549541  0.04247980  0.93618996     0.00300
H1611       H  0.61725678  0.07712285  0.97810762     0.06200
H1612       H  0.97481459  0.07311956  0.87971325     0.06200
N1613       N  0.92648588  0.04089163  0.53558671    -0.26800
N1614       N  0.96305458  0.46162890  0.92817393    -0.26400
N1615       N  0.56240662  0.04354148  0.54832967     0.00700
C1616       C  0.91328702  0.41890922  0.57637532     0.42100
C1617       C  0.59735068  0.43864351  0.95797492    -0.07600
N1618       N  0.96203122  0.04085958  0.92839629    -0.26400
H1619       H  0.97645569  0.42866886  0.87944792     0.06200
N1620       N  0.94357984  0.43765191  0.58903565    -0.47600
H1621       H  0.62161562  0.43355156  0.97558090     0.06200
C1622       C  0.58265958  0.08686164  0.92424177     0.41900
C1623       C  0.54046671  0.43743071  0.59597821    -0.07100
Co1624     Co  0.56744597  0.50398661  0.50629700     0.73800
N1625       N  0.55528148  0.43880695  0.91017185    -0.47300
C1626       C  0.91194530  0.08439197  0.57658769     0.42200
N1627       N  0.58754813  0.06899058  0.55665085    -0.47300
Co1628     Co  0.50451708  0.00211244  0.93142441     0.73900
C1629       C  0.95660544  0.06721310  0.90328898    -0.07600
C1630       C  0.90221189  0.43513174  0.54067635    -0.07200
N1631       N  0.53398907  0.04290679  0.57226638    -0.26700
N1632       N  0.90909952  0.43606718  0.94365637    -0.47500
H1633       H  0.87753618  0.07308869  0.52265143     0.06200
C1634       C  0.59367807  0.07061010  0.95990046    -0.07600
Cl1635     Cl  0.49848978  0.00244629  0.49995397    -0.50600
C1636       C  0.58650548  0.42159157  0.92221386     0.41900
H1637       H  0.52126093  0.07453888  0.62209068     0.06100
N1638       N  0.55289871  0.06766769  0.91103046    -0.47300
C1639       C  0.60545931  0.11282831  0.90105727     0.85800
C1640       C  0.64835515  0.10856331  0.90558343    -0.54400
C1641       C  0.66911685  0.13232338  0.88475136     0.08700
C1642       C  0.64476822  0.15787430  0.86099887     0.19700
C1643       C  0.59745604  0.15261040  0.91051832    -0.55100
C1644       C  0.61808041  0.17615964  0.88953655     0.08800
C1645       C  0.59860243  0.10920373  0.85842187    -0.54700
C1646       C  0.61957200  0.13249044  0.83726585     0.09400
H1647       H  0.66121494  0.08848144  0.92356967     0.13900
H1648       H  0.66127463  0.17709887  0.84370809    -0.00300
H1649       H  0.57696641  0.16140944  0.93139620     0.14200
H1650       H  0.57899555  0.08983879  0.84602854     0.14000
C1651       C  0.60832595  0.39505506  0.89823992     0.85800
C1652       C  0.60047627  0.39978443  0.85607534    -0.54400
C1653       C  0.61897367  0.37577566  0.83366513     0.08700
C1654       C  0.64341792  0.34867050  0.85526015     0.19700
C1655       C  0.59834358  0.35555049  0.90656347    -0.55100
C1656       C  0.61659633  0.33132584  0.88388208     0.08800
C1657       C  0.65173108  0.39696839  0.90161038    -0.54700
C1658       C  0.67056173  0.37233743  0.87914211     0.09400
H1659       H  0.58267046  0.42088524  0.84464462     0.13900
H1660       H  0.65706216  0.32797094  0.83720129    -0.00300
H1661       H  0.57875098  0.34743232  0.92842852     0.14200
H1662       H  0.66610292  0.41620048  0.91997400     0.14000
C1663       C  0.60002474  0.39586332  0.60847553     0.85800
C1664       C  0.64288220  0.39918578  0.60217230    -0.54400
C1665       C  0.66389506  0.37619414  0.62358747     0.08700
C1666       C  0.63983679  0.35124415  0.64837849     0.19700
C1667       C  0.59074125  0.35588553  0.60057416    -0.55100
C1668       C  0.61169985  0.33245607  0.62135500     0.08800
C1669       C  0.59497866  0.40095679  0.65113021    -0.54700
C1670       C  0.61567490  0.37741810  0.67186973     0.09400
H1671       H  0.65550118  0.41829137  0.58284883     0.13900
H1672       H  0.65648253  0.33221943  0.66574571    -0.00300
H1673       H  0.57014347  0.34694724  0.57981089     0.14200
H1674       H  0.57689354  0.42131114  0.66395647     0.14000
C1675       C  0.59846319  0.11293546  0.61062888     0.85800
C1676       C  0.59247108  0.11054263  0.65340567    -0.54400
C1677       C  0.61425633  0.13420378  0.67395580     0.08700
C1678       C  0.64018340  0.15790609  0.64962482     0.19700
C1679       C  0.59165729  0.15287247  0.60122021    -0.55100
C1680       C  0.61375345  0.17639286  0.62143072     0.08800
C1681       C  0.64116081  0.10734803  0.60536584    -0.54700
C1682       C  0.66301631  0.13062737  0.62606935     0.09400
H1683       H  0.57330682  0.09141887  0.66641056     0.13900
H1684       H  0.65795691  0.17741325  0.66566216    -0.00300
H1685       H  0.57138797  0.16175098  0.58035791     0.14200
H1686       H  0.65321012  0.08664273  0.58710453     0.14000
C1687       C  0.89675546  0.10862386  0.89034669     0.85800
C1688       C  0.90012967  0.10266060  0.84749157    -0.54400
C1689       C  0.87812710  0.12542199  0.82669663     0.08700
C1690       C  0.85537493  0.15235396  0.85098877     0.19700
C1691       C  0.90653843  0.14869722  0.89665681    -0.55100
C1692       C  0.88483566  0.17159540  0.87605089     0.08800
C1693       C  0.85428543  0.10570451  0.89857888    -0.54700
C1694       C  0.83250298  0.12824506  0.87763148     0.09400
H1695       H  0.91956709  0.08340959  0.83503853     0.13900
H1696       H  0.83769168  0.17116172  0.83441596    -0.00300
H1697       H  0.92840455  0.15814626  0.91583488     0.14200
H1698       H  0.84240132  0.08734921  0.91910608     0.14000
C1699       C  0.88934020  0.11091950  0.59947233     0.85800
C1700       C  0.84649823  0.10595582  0.59545560    -0.54400
C1701       C  0.82594174  0.13050656  0.61572327     0.08700
C1702       C  0.85025546  0.15717912  0.63897173     0.19700
C1703       C  0.89719290  0.15032114  0.58914015    -0.55100
C1704       C  0.87670897  0.17454714  0.60974629     0.08800
C1705       C  0.89649042  0.10890326  0.64207799    -0.54700
C1706       C  0.87576543  0.13283853  0.66309950     0.09400
H1707       H  0.83367046  0.08406824  0.57931139     0.13900
H1708       H  0.83330504  0.17698437  0.65545843    -0.00300
H1709       H  0.91744725  0.15841518  0.56786656     0.14200
H1710       H  0.91538455  0.08938627  0.65471965     0.14000
C1711       C  0.89083301  0.39310962  0.60018491     0.85800
C1712       C  0.89944332  0.39691076  0.64248966    -0.54400
C1713       C  0.87973570  0.37340830  0.66429667     0.08700
C1714       C  0.85298208  0.34843762  0.64208307     0.19700
C1715       C  0.89801396  0.35311277  0.59053409    -0.55100
C1716       C  0.87837848  0.32977447  0.61276712     0.08800
C1717       C  0.84778125  0.39766552  0.59745021    -0.54700
C1718       C  0.82775548  0.37407229  0.61926622     0.09400
H1719       H  0.91871383  0.41687094  0.65441762     0.13900
H1720       H  0.83726532  0.32942510  0.66035558    -0.00300
H1721       H  0.91727125  0.34406199  0.56862753     0.14200
H1722       H  0.83432400  0.41763419  0.57975665     0.14000
C1723       C  0.89935752  0.39080475  0.89042687     0.85800
C1724       C  0.85669993  0.39136894  0.89914621    -0.54400
C1725       C  0.83560467  0.36719433  0.87835706     0.08700
C1726       C  0.85976512  0.34541340  0.84990289     0.19700
C1727       C  0.91111265  0.35107591  0.89526487    -0.55100
C1728       C  0.89019678  0.32737240  0.87401734     0.08800
C1729       C  0.90177262  0.39763852  0.84802489    -0.54700
C1730       C  0.88107622  0.37402050  0.82677958     0.09400
H1731       H  0.84433814  0.41050110  0.91888615     0.13900
H1732       H  0.84398602  0.32547214  0.83239431    -0.00300
H1733       H  0.93293973  0.34241064  0.91460844     0.14200
H1734       H  0.91836080  0.41925766  0.83570740     0.14000
C1735       C  0.84840911  0.38237447  0.72540019    -0.27000
C1736       C  0.88155918  0.37381494  0.70583626    -0.15100
C1737       C  0.91511631  0.36682646  0.72623682     0.35600
C1738       C  0.91397320  0.36740509  0.76566438    -0.26400
C1739       C  0.88060725  0.37548922  0.78518328    -0.15700
C1740       C  0.84793256  0.38500830  0.76470933     0.36600
N1741       N  0.81460763  0.39919503  0.78250297    -0.89900
H1742       H  0.82301728  0.38886879  0.70984618     0.17800
H1743       H  0.93940480  0.36122111  0.78127130     0.17800
N1744       N  0.95055189  0.35868513  0.70832075    -0.89000
H1745       H  0.80915693  0.42450375  0.77080440     0.35100
H1746       H  0.81946135  0.40457801  0.81094945     0.40200
H1747       H  0.94813725  0.35721033  0.67912916     0.39800
H1748       H  0.95890595  0.33295777  0.71697763     0.34700
C1749       C  0.90088913  0.23225738  0.63461095    -0.27000
C1750       C  0.88116759  0.21405137  0.60610648    -0.15100
C1751       C  0.86437841  0.23407942  0.57678122     0.35600
C1752       C  0.86500843  0.27201788  0.57888057    -0.26400
C1753       C  0.88162811  0.29007374  0.60957473    -0.15700
C1754       C  0.90035787  0.27007689  0.63738219     0.36600
N1755       N  0.91865232  0.28814592  0.66835876    -0.89900
H1756       H  0.91610584  0.21673870  0.65525208     0.17800
H1757       H  0.85155253  0.28748946  0.55690840     0.17800
N1758       N  0.84603569  0.21712463  0.54508052    -0.89000
H1759       H  0.93327611  0.26958780  0.68487144     0.35100
H1760       H  0.89744642  0.29879025  0.68557319     0.40200
H1761       H  0.84964459  0.18915475  0.54538089     0.39800
H1762       H  0.85977002  0.22592451  0.52078760     0.34700
C1763       C  0.87852881  0.16001683  0.76718341    -0.27000
C1764       C  0.87738709  0.12617601  0.78475265    -0.15100
C1765       C  0.87325784  0.09467587  0.76194770     0.35600
C1766       C  0.87278445  0.09774183  0.72268860    -0.26400
C1767       C  0.87514185  0.13159194  0.70510290    -0.15700
C1768       C  0.87684707  0.16303361  0.72788448     0.36600
N1769       N  0.87749426  0.19818958  0.71153975    -0.89900
H1770       H  0.88099348  0.18452466  0.78406270     0.17800
H1771       H  0.86977052  0.07334047  0.70572155     0.17800
N1772       N  0.86722141  0.05950635  0.77748505    -0.89000
H1773       H  0.90180462  0.21157941  0.72101945     0.35100
H1774       H  0.85416326  0.21257720  0.72162959     0.40200
H1775       H  0.84482993  0.06092885  0.79656410     0.39800
H1776       H  0.89152621  0.05114021  0.79136703     0.34700
C1777       C  0.86713406  0.26998253  0.90097469    -0.27000
C1778       C  0.89263690  0.28756803  0.87716169    -0.15100
C1779       C  0.91732169  0.26699914  0.85441600     0.37400
C1780       C  0.91506515  0.22890563  0.85505961    -0.26400
C1781       C  0.88874267  0.21141575  0.87814372    -0.15700
C1782       C  0.86530923  0.23200119  0.90207276     0.36600
N1783       N  0.83943066  0.21420329  0.92696423    -0.89900
H1784       H  0.84822926  0.28601941  0.91833936     0.17800
H1785       H  0.93323826  0.21281232  0.83698870     0.17800
N1786       N  0.94412308  0.28484903  0.83054774    -0.89000
H1787       H  0.82397746  0.23322528  0.94251905     0.35100
H1788       H  0.85535256  0.19955885  0.94630778     0.40200
H1789       H  0.92891651  0.29886951  0.81018150     0.39800
H1790       H  0.96059350  0.26581354  0.81609533     0.34700
C1791       C  0.72199685  0.13253134  0.58883304    -0.27000
C1792       C  0.70479580  0.13023430  0.62423931    -0.15100
C1793       C  0.72770186  0.12697895  0.65664852     0.35600
C1794       C  0.76701989  0.12719025  0.65296133    -0.26400
C1795       C  0.78418927  0.12983400  0.61755792    -0.15700
C1796       C  0.76122273  0.13225714  0.58508606     0.36600
N1797       N  0.77666630  0.13585453  0.54809804    -0.89900
H1798       H  0.70472002  0.13501873  0.56381496     0.17800
H1799       H  0.78435107  0.12471065  0.67794822     0.17800
N1800       N  0.71207322  0.12169626  0.69334803    -0.89000
H1801       H  0.79228483  0.11280309  0.54130250     0.35100
H1802       H  0.79437862  0.15842354  0.54795563     0.40200
H1803       H  0.69374123  0.09948178  0.69223705     0.39800
H1804       H  0.69701100  0.14470457  0.70140096     0.34700
C1805       C  0.64090261  0.27407744  0.60315748    -0.27000
C1806       C  0.60936768  0.29255264  0.61713850    -0.15100
C1807       C  0.57747838  0.27265540  0.62889963     0.35600
C1808       C  0.57913080  0.23453687  0.62909669    -0.26400
C1809       C  0.61182663  0.21622545  0.61748113    -0.15700
C1810       C  0.64262270  0.23630603  0.60345944     0.36600
N1811       N  0.67583744  0.21910776  0.58902519    -0.89900
H1812       H  0.66446371  0.28913870  0.59195891     0.17800
H1813       H  0.55528266  0.21906092  0.63931165     0.17800
N1814       N  0.54414739  0.29108689  0.64169848    -0.89000
H1815       H  0.66781976  0.20073524  0.56789046     0.35100
H1816       H  0.68868938  0.20493078  0.61076365     0.40200
H1817       H  0.53250962  0.30440550  0.61866533     0.39800
H1818       H  0.52380324  0.27247648  0.65057341     0.34700
C1819       C  0.76662088  0.40734909  0.62372077    -0.27000
C1820       C  0.78575167  0.37413829  0.62135766    -0.15100
C1821       C  0.76463709  0.34164052  0.62138016     0.35600
C1822       C  0.72510503  0.34312738  0.62358055    -0.26400
C1823       C  0.70591655  0.37624706  0.62407622    -0.15700
C1824       C  0.72698890  0.40877318  0.62535009     0.36600
N1825       N  0.70818651  0.44304228  0.62934757    -0.89900
H1826       H  0.78271745  0.43232070  0.62486172     0.17800
H1827       H  0.70926335  0.31816349  0.62385992     0.17800
N1828       N  0.78313981  0.30724712  0.61758681    -0.89000
H1829       H  0.72775643  0.46427863  0.63008984     0.35100
H1830       H  0.69450362  0.44325765  0.65541570     0.40200
H1831       H  0.79475791  0.30620711  0.59060082     0.39800
H1832       H  0.76362886  0.28600471  0.61890412     0.34700
C1833       C  0.64518159  0.39422597  0.73254211    -0.27000
C1834       C  0.61513223  0.37759991  0.71329260    -0.15100
C1835       C  0.58482634  0.36249418  0.73381912     0.35600
C1836       C  0.58642039  0.36271135  0.77315770    -0.26400
C1837       C  0.61734826  0.37769132  0.79229994    -0.15700
C1838       C  0.64588982  0.39546139  0.77205071     0.36600
N1839       N  0.67476687  0.41545651  0.79173379    -0.89900
H1840       H  0.66764559  0.40691121  0.71667180     0.17800
H1841       H  0.56328299  0.35108821  0.78885856     0.17800
N1842       N  0.55242887  0.34626956  0.71595306    -0.89000
H1843       H  0.69351462  0.42722192  0.77269198     0.35100
H1844       H  0.66171544  0.43674346  0.80628777     0.40200
H1845       H  0.55401884  0.34760854  0.68673560     0.39800
H1846       H  0.52887949  0.36153383  0.72381541     0.34700
C1847       C  0.77285136  0.35523993  0.84814233    -0.27000
C1848       C  0.79329879  0.36446576  0.88065741    -0.15100
C1849       C  0.77283037  0.37204594  0.91403789     0.35600
C1850       C  0.73309469  0.37446026  0.91271406    -0.26400
C1851       C  0.71283863  0.36830187  0.87911474    -0.15700
C1852       C  0.73342692  0.35754883  0.84674047     0.36600
N1853       N  0.71513113  0.34994658  0.81163960    -0.89900
H1854       H  0.78730225  0.34750995  0.82258904     0.17800
H1855       H  0.71784966  0.38056342  0.93839426     0.17800
N1856       N  0.79216328  0.37610887  0.94940009    -0.89000
H1857       H  0.72730867  0.36634244  0.79111269     0.35100
H1858       H  0.72090464  0.32306996  0.80416384     0.40200
H1859       H  0.80504121  0.35136702  0.95528824     0.39800
H1860       H  0.77304577  0.38119448  0.97121402     0.34700
C1861       C  0.61794686  0.16560679  0.77628732    -0.27000
C1862       C  0.61896153  0.13250531  0.79532835    -0.15100
C1863       C  0.61975145  0.09989768  0.77412479     0.35600
C1864       C  0.61754836  0.10116657  0.73466141    -0.26400
C1865       C  0.61537984  0.13428577  0.71577300    -0.15700
C1866       C  0.61572715  0.16676580  0.73688182     0.36600
N1867       N  0.61263743  0.20097931  0.71855249    -0.89900
H1868       H  0.61826767  0.19082821  0.79193852     0.17800
H1869       H  0.61849476  0.07616063  0.71846833     0.17800
N1870       N  0.62393496  0.06569771  0.79260059    -0.89000
H1871       H  0.63620065  0.21663275  0.72589345     0.35100
H1872       H  0.58864636  0.21412969  0.72891636     0.40200
H1873       H  0.65033270  0.06572679  0.80576683     0.39800
H1874       H  0.62416589  0.04440479  0.77297154     0.34700
C1875       C  0.77205314  0.16208972  0.88071427    -0.27000
C1876       C  0.79065489  0.12868138  0.87954437    -0.15100
C1877       C  0.76920673  0.09636880  0.87977180     0.35600
C1878       C  0.72970091  0.09832636  0.88195518    -0.26400
C1879       C  0.71107354  0.13181028  0.88370338    -0.15700
C1880       C  0.73259206  0.16405689  0.88351629     0.36600
N1881       N  0.71454295  0.19865810  0.88740538    -0.89900
H1882       H  0.78841335  0.18685288  0.88032050     0.17800
H1883       H  0.71329896  0.07352495  0.88134671     0.17800
N1884       N  0.78744701  0.06173880  0.87667640    -0.89000
H1885       H  0.73433471  0.21965423  0.88602394     0.35100
H1886       H  0.70303361  0.19983163  0.91441434     0.40200
H1887       H  0.80034039  0.06034301  0.85026179     0.39800
H1888       H  0.76762651  0.04073117  0.87739600     0.34700
C1889       C  0.59688816  0.23278734  0.86128324    -0.27000
C1890       C  0.61367729  0.21575571  0.89193222    -0.15100
C1891       C  0.62783663  0.23696433  0.92229752     0.35600
C1892       C  0.62715027  0.27484515  0.91963709    -0.26400
C1893       C  0.61267386  0.29171663  0.88757346    -0.15700
C1894       C  0.59657709  0.27035729  0.85859911     0.36600
N1895       N  0.57972571  0.28603209  0.82609892    -0.89900
H1896       H  0.58434483  0.21669334  0.83891681     0.17800
H1897       H  0.63924428  0.29118538  0.94214028     0.17800
N1898       N  0.64426228  0.22133625  0.95535727    -0.89000
H1899       H  0.60066284  0.29982890  0.81138867     0.35100
H1900       H  0.55909765  0.30436015  0.83507826     0.40200
H1901       H  0.64413480  0.19311676  0.95409113     0.39800
H1902       H  0.62745207  0.22875297  0.97833127     0.34700
C1903       C  0.57676187  0.92154903  0.08553854     0.41800
N1904       N  0.56383503  0.96460339  0.04766965     0.00700
C1905       C  0.90127883  0.56745370  0.04078055    -0.07200
H1906       H  0.87826196  0.92895622  0.02283043     0.06200
C1907       C  0.95820725  0.93452050  0.40311931    -0.07600
Co1908     Co  0.99248780  0.00262449  0.06853327     0.74200
N1909       N  0.92721788  0.96196981  0.03527026    -0.26700
Co1910     Co  0.92953156  0.50123698  0.49354081     0.74100
C1911       C  0.92237141  0.91744941  0.41356193     0.41900
N1912       N  0.54700563  0.96368610  0.43582732     0.00300
N1913       N  0.93428830  0.96155275  0.45173513     0.00400
N1914       N  0.94227966  0.56645928  0.08957639    -0.47600
H1915       H  0.52223204  0.93128258  0.11947279     0.06200
N1916       N  0.95124103  0.96252768  0.06365218     0.00700
N1917       N  0.93328584  0.54049000  0.45193640     0.00400
C1918       C  0.92036283  0.58328608  0.41355622     0.42000
N1919       N  0.57126811  0.96442466  0.46400497    -0.26200
C1920       C  0.53923989  0.56930556  0.09806990    -0.07100
N1921       N  0.58975289  0.94011780  0.05566129    -0.47300
N1922       N  0.90745605  0.56498609  0.44370630    -0.47500
C1923       C  0.57471370  0.58691873  0.08741326     0.41800
N1924       N  0.95028537  0.54122701  0.06417021     0.00700
N1925       N  0.56923971  0.54330197  0.46479358    -0.26200
N1926       N  0.53500950  0.96394211  0.07113991    -0.26700
N1927       N  0.54549537  0.54247977  0.43619004     0.00300
H1928       H  0.61725663  0.57712299  0.47810771     0.06200
H1929       H  0.97481462  0.57311949  0.37971334     0.06200
N1930       N  0.92648594  0.54089160  0.03558670    -0.26800
N1931       N  0.96305451  0.96162891  0.42817387    -0.26400
N1932       N  0.56240659  0.54354133  0.04832984     0.00700
C1933       C  0.91328683  0.91890940  0.07637533     0.42100
C1934       C  0.59735068  0.93864365  0.45797481    -0.07600
N1935       N  0.96203112  0.54085949  0.42839632    -0.26400
H1936       H  0.97645565  0.92866879  0.37944795     0.06200
N1937       N  0.94357966  0.93765205  0.08903567    -0.47600
H1938       H  0.62161561  0.93355170  0.47558081     0.06200
C1939       C  0.58265952  0.58686161  0.42424178     0.41900
C1940       C  0.54046654  0.93743064  0.09597802    -0.07100
Co1941     Co  0.56744595  0.00398655  0.00629686     0.73800
N1942       N  0.55528133  0.93880685  0.41017190    -0.47300
C1943       C  0.91194542  0.58439209  0.07658757     0.42200
N1944       N  0.58754807  0.56899045  0.05665099    -0.47300
Co1945     Co  0.50451710  0.50211235  0.43142449     0.73900
C1946       C  0.95660539  0.56721301  0.40328900    -0.07600
C1947       C  0.90221190  0.93513178  0.04067626    -0.07200
N1948       N  0.53398903  0.54290671  0.07226654    -0.26700
N1949       N  0.90909950  0.93606714  0.44365639    -0.47500
H1950       H  0.87753646  0.57308883  0.02265117     0.06200
C1951       C  0.59367797  0.57061016  0.45990052    -0.07600
Cl1952     Cl  0.49848976  0.50244627  0.99995410    -0.50600
C1953       C  0.58650535  0.92159148  0.42221391     0.41900
H1954       H  0.52126068  0.57453890  0.12209068     0.06100
N1955       N  0.55289867  0.56766764  0.41103051    -0.47300
C1956       C  0.60545929  0.61282830  0.40105724     0.85800
C1957       C  0.64835513  0.60856324  0.40558336    -0.54400
C1958       C  0.66911687  0.63232325  0.38475132     0.08700
C1959       C  0.64476831  0.65787422  0.36099887     0.19700
C1960       C  0.59745615  0.65261039  0.41051832    -0.55100
C1961       C  0.61808055  0.67615960  0.38953656     0.08800
C1962       C  0.59860235  0.60920382  0.35842183    -0.54700
C1963       C  0.61957203  0.63249046  0.33726583     0.09400
H1964       H  0.66121492  0.58848136  0.42356963     0.13900
H1965       H  0.66127478  0.67709876  0.34370809    -0.00300
H1966       H  0.57696651  0.66140947  0.43139617     0.14200
H1967       H  0.57899531  0.58983903  0.34602850     0.14000
C1968       C  0.60832589  0.89505497  0.39823995     0.85800
C1969       C  0.60047624  0.89978434  0.35607540    -0.54400
C1970       C  0.61897364  0.87577566  0.33366513     0.08700
C1971       C  0.64341793  0.84867052  0.35526010     0.19700
C1972       C  0.59834359  0.85555037  0.40656343    -0.55100
C1973       C  0.61659640  0.83132577  0.38388202     0.08800
C1974       C  0.65173102  0.89696834  0.40161039    -0.54700
C1975       C  0.67056169  0.87233743  0.37914209     0.09400
H1976       H  0.58267042  0.92088519  0.34464467     0.13900
H1977       H  0.65706224  0.82797098  0.33720122    -0.00300
H1978       H  0.57875102  0.84743212  0.42842848     0.14200
H1979       H  0.66610283  0.91620045  0.41997401     0.14000
C1980       C  0.60002454  0.89586325  0.10847550     0.85800
C1981       C  0.64288196  0.89918564  0.10217226    -0.54400
C1982       C  0.66389487  0.87619407  0.12358746     0.08700
C1983       C  0.63983664  0.85124414  0.14837860     0.19700
C1984       C  0.59074098  0.85588543  0.10057427    -0.55100
C1985       C  0.61169963  0.83245601  0.12135515     0.08800
C1986       C  0.59497854  0.90095686  0.15113015    -0.54700
C1987       C  0.61567478  0.87741820  0.17186974     0.09400
H1988       H  0.65550095  0.91829121  0.08284872     0.13900
H1989       H  0.65648241  0.83221954  0.16574588    -0.00300
H1990       H  0.57014324  0.84694702  0.07981103     0.14200
H1991       H  0.57689345  0.92131132  0.16395633     0.14000
C1992       C  0.59846327  0.61293539  0.11062890     0.85800
C1993       C  0.59247126  0.61054261  0.15340572    -0.54400
C1994       C  0.61425662  0.63420376  0.17395575     0.08700
C1995       C  0.64018363  0.65790600  0.14962465     0.19700
C1996       C  0.59165742  0.65287241  0.10122023    -0.55100
C1997       C  0.61375363  0.67639280  0.12143065     0.08800
C1998       C  0.64116091  0.60734788  0.10536572    -0.54700
C1999       C  0.66301646  0.63062727  0.12606914     0.09400
H2000       H  0.57330694  0.59141896  0.16641064     0.13900
H2001       H  0.65795726  0.67741313  0.16566194    -0.00300
H2002       H  0.57138803  0.66175091  0.08035799     0.14200
H2003       H  0.65321017  0.58664256  0.08710447     0.14000
C2004       C  0.89675545  0.60862381  0.39034660     0.85800
C2005       C  0.90012980  0.60266063  0.34749148    -0.54400
C2006       C  0.87812719  0.62542197  0.32669652     0.08700
C2007       C  0.85537492  0.65235382  0.35098870     0.19700
C2008       C  0.90653822  0.64869718  0.39665682    -0.55100
C2009       C  0.88483547  0.67159532  0.37605090     0.08800
C2010       C  0.85428543  0.60570431  0.39857864    -0.54700
C2011       C  0.83250295  0.62824484  0.37763126     0.09400
H2012       H  0.91956730  0.58340971  0.33503844     0.13900
H2013       H  0.83769165  0.67116158  0.33441589    -0.00300
H2014       H  0.92840423  0.65814625  0.41583503     0.14200
H2015       H  0.84240134  0.58734887  0.41910574     0.14000
C2016       C  0.88934029  0.61091965  0.09947219     0.85800
C2017       C  0.84649832  0.60595594  0.09545543    -0.54400
C2018       C  0.82594184  0.63050671  0.11572306     0.08700
C2019       C  0.85025551  0.65717927  0.13897154     0.19700
C2020       C  0.89719302  0.65032131  0.08914004    -0.55100
C2021       C  0.87670902  0.67454732  0.10974614     0.08800
C2022       C  0.89649052  0.60890347  0.14207788    -0.54700
C2023       C  0.87576546  0.63283871  0.16309937     0.09400
H2024       H  0.83367058  0.58406833  0.07931129     0.13900
H2025       H  0.83330500  0.67698454  0.15545817    -0.00300
H2026       H  0.91744742  0.65841535  0.06786650     0.14200
H2027       H  0.91538469  0.58938655  0.15471956     0.14000
C2028       C  0.89083278  0.89310986  0.10018491     0.85800
C2029       C  0.89944293  0.89691116  0.14248968    -0.54400
C2030       C  0.87973535  0.87340868  0.16429670     0.08700
C2031       C  0.85298182  0.84843789  0.14208308     0.19700
C2032       C  0.89801384  0.85311298  0.09053422    -0.55100
C2033       C  0.87837833  0.82977469  0.11276725     0.08800
C2034       C  0.84778103  0.89766572  0.09745003    -0.54700
C2035       C  0.82775527  0.87407246  0.11926602     0.09400
H2036       H  0.91871331  0.91687144  0.15441765     0.13900
H2037       H  0.83726498  0.82942540  0.16035557    -0.00300
H2038       H  0.91727117  0.84406217  0.06862772     0.14200
H2039       H  0.83432386  0.91763437  0.07975642     0.14000
C2040       C  0.89935744  0.89080473  0.39042688     0.85800
C2041       C  0.85669989  0.89136891  0.39914626    -0.54400
C2042       C  0.83560461  0.86719432  0.37835711     0.08700
C2043       C  0.85976505  0.84541345  0.34990291     0.19700
C2044       C  0.91111256  0.85107589  0.39526476    -0.55100
C2045       C  0.89019669  0.82737238  0.37401727     0.08800
C2046       C  0.90177245  0.89763857  0.34802492    -0.54700
C2047       C  0.88107607  0.87402056  0.32677961     0.09400
H2048       H  0.84433813  0.91050107  0.41888620     0.13900
H2049       H  0.84398592  0.82547221  0.33239429    -0.00300
H2050       H  0.93293967  0.84241057  0.41460830     0.14200
H2051       H  0.91836059  0.91925778  0.33570743     0.14000
C2052       C  0.84840883  0.88237471  0.22540026    -0.27000
C2053       C  0.88155891  0.87381528  0.20583629    -0.15100
C2054       C  0.91511607  0.86682667  0.22623679     0.35600
C2055       C  0.91397297  0.86740513  0.26566436    -0.26400
C2056       C  0.88060705  0.87548924  0.28518330    -0.15700
C2057       C  0.84793233  0.88500838  0.26470944     0.36600
N2058       N  0.81460751  0.89919523  0.28250315    -0.89900
H2059       H  0.82301701  0.88886908  0.20984630     0.17800
H2060       H  0.93940457  0.86122109  0.28127129     0.17800
N2061       N  0.95055164  0.85868538  0.20832066    -0.89000
H2062       H  0.80915692  0.92450396  0.27080457     0.35100
H2063       H  0.81946127  0.90457820  0.31094962     0.40200
H2064       H  0.94813698  0.85721058  0.17912908     0.39800
H2065       H  0.95890567  0.83295793  0.21697734     0.34700
C2066       C  0.90088899  0.73225753  0.13461100    -0.27000
C2067       C  0.88116761  0.71405156  0.10610640    -0.15100
C2068       C  0.86437851  0.73407965  0.07678110     0.35600
C2069       C  0.86500846  0.77201812  0.07888050    -0.26400
C2070       C  0.88162796  0.79007393  0.10957481    -0.15700
C2071       C  0.90035764  0.77007705  0.13738233     0.36600
N2072       N  0.91865179  0.78814603  0.16835910    -0.89900
H2073       H  0.91610556  0.71673883  0.15525221     0.17800
H2074       H  0.85155270  0.78748971  0.05690830     0.17800
N2075       N  0.84603605  0.71712487  0.04508025    -0.89000
H2076       H  0.93327548  0.76958790  0.18487185     0.35100
H2077       H  0.89744569  0.79879025  0.18557336     0.40200
H2078       H  0.84964495  0.68915500  0.04538064     0.39800
H2079       H  0.85977060  0.72592477  0.02078746     0.34700
C2080       C  0.87852859  0.66001699  0.26718337    -0.27000
C2081       C  0.87738724  0.62617608  0.28475255    -0.15100
C2082       C  0.87325838  0.59467593  0.26194753     0.35600
C2083       C  0.87278489  0.59774198  0.22268846    -0.26400
C2084       C  0.87514190  0.63159213  0.20510279    -0.15700
C2085       C  0.87684681  0.66303379  0.22788442     0.36600
N2086       N  0.87749350  0.69818979  0.21153976    -0.89900
H2087       H  0.88099299  0.68452479  0.28406266     0.17800
H2088       H  0.86977113  0.57334060  0.20572138     0.17800
N2089       N  0.86722224  0.55950631  0.27748482    -0.89000
H2090       H  0.90180362  0.71157999  0.22101954     0.35100
H2091       H  0.85416224  0.71257704  0.22162959     0.40200
H2092       H  0.84483066  0.56092853  0.29656376     0.39800
H2093       H  0.89152715  0.55114029  0.29136671     0.34700
C2094       C  0.86713401  0.76998251  0.40097479    -0.27000
C2095       C  0.89263677  0.78756798  0.37716167    -0.15100
C2096       C  0.91732141  0.76699900  0.35441585     0.37400
C2097       C  0.91506485  0.72890550  0.35505943    -0.26400
C2098       C  0.88874247  0.71141569  0.37814368    -0.15700
C2099       C  0.86530911  0.73200114  0.40207283     0.36600
N2100       N  0.83943051  0.71420328  0.42696426    -0.89900
H2101       H  0.84822929  0.78601940  0.41833952     0.17800
H2102       H  0.93323780  0.71281216  0.33698841     0.17800
N2103       N  0.94412265  0.78484886  0.33054740    -0.89000
H2104       H  0.82397747  0.73322531  0.44251921     0.35100
H2105       H  0.85535233  0.69955861  0.44630769     0.40200
H2106       H  0.92891591  0.79886936  0.31018131     0.39800
H2107       H  0.96059281  0.76581330  0.31609478     0.34700
C2108       C  0.72199702  0.63253132  0.08883287    -0.27000
C2109       C  0.70479596  0.63023422  0.12423911    -0.15100
C2110       C  0.72770198  0.62697886  0.15664829     0.35600
C2111       C  0.76701999  0.62719023  0.15296110    -0.26400
C2112       C  0.78418939  0.62983412  0.11755772    -0.15700
C2113       C  0.76122290  0.63225726  0.08508587     0.36600
N2114       N  0.77666648  0.63585501  0.04809790    -0.89900
H2115       H  0.70472017  0.63501877  0.06381477     0.17800
H2116       H  0.78435116  0.62471054  0.17794802     0.17800
N2117       N  0.71207336  0.62169597  0.19334781    -0.89000
H2118       H  0.79228533  0.61280381  0.04130225     0.35100
H2119       H  0.79437865  0.65842411  0.04795575     0.40200
H2120       H  0.69374142  0.59948143  0.19223672     0.39800
H2121       H  0.69701110  0.64470422  0.20140092     0.34700
C2122       C  0.64090250  0.77407748  0.10315741    -0.27000
C2123       C  0.60936754  0.79255258  0.11713855    -0.15100
C2124       C  0.57747828  0.77265526  0.12889963     0.35600
C2125       C  0.57913080  0.73453673  0.12909665    -0.26400
C2126       C  0.61182670  0.71622540  0.11748110    -0.15700
C2127       C  0.64262269  0.73630607  0.10345936     0.36600
N2128       N  0.67583740  0.71910791  0.08902490    -0.89900
H2129       H  0.66446349  0.78913883  0.09195877     0.17800
H2130       H  0.55528271  0.71906073  0.13931166     0.17800
N2131       N  0.54414733  0.79108670  0.14169872    -0.89000
H2132       H  0.66781969  0.70073539  0.06789018     0.35100
H2133       H  0.68868949  0.70493074  0.11076315     0.40200
H2134       H  0.53250940  0.80440539  0.11866569     0.39800
H2135       H  0.52380321  0.77247626  0.15057366     0.34700
C2136       C  0.76662068  0.90734917  0.12372044    -0.27000
C2137       C  0.78575147  0.87413836  0.12135732    -0.15100
C2138       C  0.76463696  0.84164055  0.12137983     0.35600
C2139       C  0.72510489  0.84312735  0.12358031    -0.26400
C2140       C  0.70591636  0.87624701  0.12407608    -0.15700
C2141       C  0.72698869  0.90877318  0.12534988     0.36600
N2142       N  0.70818627  0.94304224  0.12934751    -0.89900
H2143       H  0.78271719  0.93232077  0.12486139     0.17800
H2144       H  0.70926325  0.81816344  0.12385970     0.17800
N2145       N  0.78313975  0.80724717  0.11758649    -0.89000
H2146       H  0.72775618  0.96427860  0.13008979     0.35100
H2147       H  0.69450349  0.94325751  0.15541569     0.40200
H2148       H  0.79475791  0.80620715  0.09060052     0.39800
H2149       H  0.76362884  0.78600471  0.11890369     0.34700
C2150       C  0.64518137  0.89422617  0.23254212    -0.27000
C2151       C  0.61513206  0.87760005  0.21329262    -0.15100
C2152       C  0.58482624  0.86249422  0.23381912     0.35600
C2153       C  0.58642028  0.86271138  0.27315771    -0.26400
C2154       C  0.61734813  0.87769142  0.29229994    -0.15700
C2155       C  0.64588960  0.89546161  0.27205072     0.36600
N2156       N  0.67476665  0.91545674  0.29173377    -0.89900
H2157       H  0.66764532  0.90691146  0.21667179     0.17800
H2158       H  0.56328294  0.85108818  0.28885859     0.17800
N2159       N  0.55242874  0.84626969  0.21595301    -0.89000
H2160       H  0.69351435  0.92722222  0.27269193     0.35100
H2161       H  0.66171524  0.93674366  0.30628782     0.40200
H2162       H  0.55401870  0.84760873  0.18673555     0.39800
H2163       H  0.52887940  0.86153402  0.22381536     0.34700
C2164       C  0.77285136  0.85524011  0.34814225    -0.27000
C2165       C  0.79329875  0.86446577  0.38065741    -0.15100
C2166       C  0.77283030  0.87204583  0.41403791     0.35600
C2167       C  0.73309460  0.87446019  0.41271407    -0.26400
C2168       C  0.71283861  0.86830191  0.37911469    -0.15700
C2169       C  0.73342692  0.85754902  0.34674038     0.36600
N2170       N  0.71513117  0.84994686  0.31163946    -0.89900
H2171       H  0.78730227  0.84751021  0.32258894     0.17800
H2172       H  0.71784953  0.88056325  0.43839426     0.17800
N2173       N  0.79216318  0.87610860  0.44940014    -0.89000
H2174       H  0.72730871  0.86634274  0.29111255     0.35100
H2175       H  0.72090476  0.82307025  0.30416365     0.40200
H2176       H  0.80504108  0.85136672  0.45528819     0.39800
H2177       H  0.77304561  0.88119409  0.47121406     0.34700
C2178       C  0.61794739  0.66560681  0.27628728    -0.27000
C2179       C  0.61896169  0.63250533  0.29532832    -0.15100
C2180       C  0.61975147  0.59989770  0.27412477     0.35600
C2181       C  0.61754847  0.60116663  0.23466138    -0.26400
C2182       C  0.61538019  0.63428582  0.21577296    -0.15700
C2183       C  0.61572778  0.66676587  0.23688177     0.36600
N2184       N  0.61263839  0.70097942  0.21855245    -0.89900
H2185       H  0.61826842  0.69082822  0.29193852     0.17800
H2186       H  0.61849474  0.57616068  0.21846830     0.17800
N2187       N  0.62393474  0.56569769  0.29260056    -0.89000
H2188       H  0.63620169  0.71663270  0.22589350     0.35100
H2189       H  0.58864739  0.71412995  0.22891622     0.40200
H2190       H  0.65033248  0.56572658  0.30576677     0.39800
H2191       H  0.62416547  0.54440477  0.27297151     0.34700
C2192       C  0.77205313  0.66208946  0.38071401    -0.27000
C2193       C  0.79065487  0.62868113  0.37954410    -0.15100
C2194       C  0.76920665  0.59636854  0.37977156     0.35600
C2195       C  0.72970083  0.59832607  0.38195512    -0.26400
C2196       C  0.71107355  0.63181005  0.38370334    -0.15700
C2197       C  0.73259208  0.66405665  0.38351613     0.36600
N2198       N  0.71454301  0.69865789  0.38740518    -0.89900
H2199       H  0.78841334  0.68685264  0.38032018     0.17800
H2200       H  0.71329888  0.57352472  0.38134680     0.17800
N2201       N  0.78744693  0.56173855  0.37667617    -0.89000
H2202       H  0.73433476  0.71965402  0.38602351     0.35100
H2203       H  0.70303373  0.69983152  0.41441417     0.40200
H2204       H  0.80034019  0.56034270  0.35026154     0.39800
H2205       H  0.76762641  0.54073095  0.37739581     0.34700
C2206       C  0.59688833  0.73278729  0.36128321    -0.27000
C2207       C  0.61367742  0.71575567  0.39193220    -0.15100
C2208       C  0.62783684  0.73696430  0.42229746     0.35600
C2209       C  0.62715057  0.77484511  0.41963697    -0.26400
C2210       C  0.61267405  0.79171656  0.38757338    -0.15700
C2211       C  0.59657726  0.77035723  0.35859904     0.36600
N2212       N  0.57972582  0.78603204  0.32609889    -0.89900
H2213       H  0.58434501  0.71669328  0.33891677     0.17800
H2214       H  0.63924475  0.79118533  0.44214006     0.17800
N2215       N  0.64426256  0.72133622  0.45535718    -0.89000
H2216       H  0.60066289  0.79982889  0.31138859     0.35100
H2217       H  0.55909776  0.80436006  0.33507832     0.40200
H2218       H  0.64413502  0.69311673  0.45409110     0.39800
H2219       H  0.62745250  0.72875306  0.47833125     0.34700
C2220       C  0.57676209  0.92154918  0.58553865     0.41800
N2221       N  0.56383510  0.96460344  0.54766970     0.00700
C2222       C  0.90127884  0.56745381  0.54078071    -0.07200
H2223       H  0.87826209  0.92895602  0.52283054     0.06200
C2224       C  0.95820717  0.93452057  0.90311929    -0.07600
Co2225     Co  0.99248778  0.00262458  0.56853328     0.74200
N2226       N  0.92721791  0.96196975  0.53527035    -0.26700
Co2227     Co  0.92953163  0.50123680  0.99354083     0.74100
C2228       C  0.92237133  0.91744946  0.91356194     0.41900
N2229       N  0.54700550  0.96368608  0.93582729     0.00300
N2230       N  0.93428826  0.96155286  0.95173505     0.00400
N2231       N  0.94227966  0.56645913  0.58957660    -0.47600
H2232       H  0.52223236  0.93128280  0.61947305     0.06200
N2233       N  0.95124109  0.96252769  0.56365226     0.00700
N2234       N  0.93328581  0.54048981  0.95193639     0.00400
C2235       C  0.92036271  0.58328594  0.91355628     0.42000
N2236       N  0.57126794  0.96442460  0.96400497    -0.26200
C2237       C  0.53923992  0.56930555  0.59806989    -0.07100
N2238       N  0.58975301  0.94011790  0.55566134    -0.47300
N2239       N  0.90745594  0.56498584  0.94370631    -0.47500
C2240       C  0.57471370  0.58691876  0.58741332     0.41800
N2241       N  0.95028541  0.54122702  0.56417027     0.00700
N2242       N  0.56923979  0.54330182  0.96479363    -0.26200
N2243       N  0.53500960  0.96394218  0.57113999    -0.26700
N2244       N  0.54549541  0.54247970  0.93619012     0.00300
H2245       H  0.61725665  0.57712288  0.97810789     0.06200
H2246       H  0.97481458  0.57311954  0.87971345     0.06200
N2247       N  0.92648599  0.54089175  0.53558674    -0.26800
N2248       N  0.96305446  0.96162900  0.92817380    -0.26400
N2249       N  0.56240666  0.54354145  0.54832980     0.00700
C2250       C  0.91328701  0.91890929  0.57637543     0.42100
C2251       C  0.59735047  0.93864357  0.95797479    -0.07600
N2252       N  0.96203114  0.54085944  0.92839638    -0.26400
H2253       H  0.97645555  0.92866885  0.87944791     0.06200
N2254       N  0.94357982  0.93765205  0.58903577    -0.47600
H2255       H  0.62161541  0.93355161  0.97558081     0.06200
C2256       C  0.58265941  0.58686169  0.92424208     0.41900
C2257       C  0.54046678  0.93743079  0.59597815    -0.07100
Co2258     Co  0.56744600  0.00398661  0.50629690     0.73800
N2259       N  0.55528123  0.93880688  0.91017182    -0.47300
C2260       C  0.91194539  0.58439197  0.57658785     0.42200
N2261       N  0.58754813  0.56899055  0.55665103    -0.47300
Co2262     Co  0.50451716  0.50211232  0.93142454     0.73900
C2263       C  0.95660536  0.56721300  0.90328910    -0.07600
C2264       C  0.90221198  0.93513165  0.54067631    -0.07200
N2265       N  0.53398908  0.54290675  0.57226648    -0.26700
N2266       N  0.90909943  0.93606728  0.94365633    -0.47500
H2267       H  0.87753645  0.57308898  0.52265143     0.06200
C2268       C  0.59367801  0.57061007  0.95990069    -0.07600
Cl2269     Cl  0.49848974  0.50244637  0.49995404    -0.50600
C2270       C  0.58650521  0.92159148  0.92221387     0.41900
H2271       H  0.52126076  0.57453880  0.62209071     0.06100
N2272       N  0.55289858  0.56766773  0.91103074    -0.47300
C2273       C  0.60545920  0.61282830  0.90105754     0.85800
C2274       C  0.64835506  0.60856327  0.90558368    -0.54400
C2275       C  0.66911676  0.63232335  0.88475164     0.08700
C2276       C  0.64476817  0.65787428  0.86099916     0.19700
C2277       C  0.59745597  0.65261038  0.91051861    -0.55100
C2278       C  0.61808037  0.67615959  0.88953686     0.08800
C2279       C  0.59860227  0.60920374  0.85842215    -0.54700
C2280       C  0.61957189  0.63249044  0.83726612     0.09400
H2281       H  0.66121487  0.58848136  0.92356988     0.13900
H2282       H  0.66127461  0.67709884  0.84370840    -0.00300
H2283       H  0.57696630  0.66140944  0.93139643     0.14200
H2284       H  0.57899530  0.58983888  0.84602884     0.14000
C2285       C  0.60832573  0.89505497  0.89823993     0.85800
C2286       C  0.60047617  0.89978438  0.85607532    -0.54400
C2287       C  0.61897357  0.87577553  0.83366514     0.08700
C2288       C  0.64341777  0.84867034  0.85526019     0.19700
C2289       C  0.59834329  0.85555040  0.90656348    -0.55100
C2290       C  0.61659608  0.83132574  0.88388209     0.08800
C2291       C  0.65173089  0.89696828  0.90161045    -0.54700
C2292       C  0.67056155  0.87233729  0.87914221     0.09400
H2293       H  0.58267050  0.92088527  0.84464456     0.13900
H2294       H  0.65706199  0.82797073  0.83720141    -0.00300
H2295       H  0.57875070  0.84743227  0.92842854     0.14200
H2296       H  0.66610272  0.91620039  0.91997405     0.14000
C2297       C  0.60002474  0.89586332  0.60847551     0.85800
C2298       C  0.64288220  0.89918568  0.60217221    -0.54400
C2299       C  0.66389505  0.87619403  0.62358743     0.08700
C2300       C  0.63983678  0.85124406  0.64837854     0.19700
C2301       C  0.59074108  0.85588551  0.60057422    -0.55100
C2302       C  0.61169975  0.83245604  0.62135505     0.08800
C2303       C  0.59497872  0.90095688  0.65113019    -0.54700
C2304       C  0.61567492  0.87741812  0.67186973     0.09400
H2305       H  0.65550120  0.91829119  0.58284869     0.13900
H2306       H  0.65648248  0.83221936  0.66574576    -0.00300
H2307       H  0.57014322  0.84694719  0.57981106     0.14200
H2308       H  0.57689369  0.92131132  0.66395643     0.14000
C2309       C  0.59846318  0.61293543  0.61062905     0.85800
C2310       C  0.59247112  0.61054263  0.65340587    -0.54400
C2311       C  0.61425643  0.63420379  0.67395597     0.08700
C2312       C  0.64018347  0.65790609  0.64962493     0.19700
C2313       C  0.59165726  0.65287244  0.60122041    -0.55100
C2314       C  0.61375348  0.67639284  0.62143086     0.08800
C2315       C  0.64116084  0.60734797  0.60536594    -0.54700
C2316       C  0.66301634  0.63062738  0.62606942     0.09400
H2317       H  0.57330675  0.59141897  0.66641075     0.13900
H2318       H  0.65795701  0.67741325  0.66566225    -0.00300
H2319       H  0.57138782  0.66175093  0.58035823     0.14200
H2320       H  0.65321018  0.58664267  0.58710469     0.14000
C2321       C  0.89675531  0.60862373  0.89034677     0.85800
C2322       C  0.90012958  0.60266055  0.84749164    -0.54400
C2323       C  0.87812704  0.62542196  0.82669671     0.08700
C2324       C  0.85537485  0.65235386  0.85098889     0.19700
C2325       C  0.90653824  0.64869709  0.89665695    -0.55100
C2326       C  0.88483549  0.67159530  0.87605109     0.08800
C2327       C  0.85428527  0.60570435  0.89857890    -0.54700
C2328       C  0.83250286  0.62824492  0.87763150     0.09400
H2329       H  0.91956708  0.58340961  0.83503863     0.13900
H2330       H  0.83769162  0.67116164  0.83441607    -0.00300
H2331       H  0.92840430  0.65814610  0.91583512     0.14200
H2332       H  0.84240113  0.58734904  0.91910605     0.14000
C2333       C  0.88934024  0.61091953  0.59947242     0.85800
C2334       C  0.84649822  0.60595581  0.59545571    -0.54400
C2335       C  0.82594178  0.63050662  0.61572334     0.08700
C2336       C  0.85025551  0.65717924  0.63897171     0.19700
C2337       C  0.89719297  0.65032115  0.58914016    -0.55100
C2338       C  0.87670902  0.67454719  0.60974623     0.08800
C2339       C  0.89649048  0.60890344  0.64207809    -0.54700
C2340       C  0.87576547  0.63283873  0.66309956     0.09400
H2341       H  0.83367043  0.58406820  0.57931164     0.13900
H2342       H  0.83330507  0.67698457  0.65545832    -0.00300
H2343       H  0.91744736  0.65841513  0.56786660     0.14200
H2344       H  0.91538465  0.58938652  0.65471980     0.14000
C2345       C  0.89083302  0.89310967  0.60018505     0.85800
C2346       C  0.89944317  0.89691082  0.64248984    -0.54400
C2347       C  0.87973559  0.87340825  0.66429681     0.08700
C2348       C  0.85298210  0.84843752  0.64208312     0.19700
C2349       C  0.89801412  0.85311284  0.59053426    -0.55100
C2350       C  0.87837864  0.82977449  0.61276723     0.08800
C2351       C  0.84778121  0.89766543  0.59745022    -0.54700
C2352       C  0.82775549  0.87407214  0.61926621     0.09400
H2353       H  0.91871357  0.91687105  0.65441787     0.13900
H2354       H  0.83726535  0.82942492  0.66035556    -0.00300
H2355       H  0.91727151  0.84406213  0.56862777     0.14200
H2356       H  0.83432394  0.91763403  0.57975663     0.14000
C2357       C  0.89935741  0.89080467  0.89042700     0.85800
C2358       C  0.85669982  0.89136887  0.89914637    -0.54400
C2359       C  0.83560455  0.86719423  0.87835729     0.08700
C2360       C  0.85976499  0.84541328  0.84990313     0.19700
C2361       C  0.91111257  0.85107584  0.89526504    -0.55100
C2362       C  0.89019665  0.82737230  0.87401757     0.08800
C2363       C  0.90177247  0.89763839  0.84802501    -0.54700
C2364       C  0.88107608  0.87402031  0.82677974     0.09400
H2365       H  0.84433806  0.91050104  0.91888630     0.13900
H2366       H  0.84398588  0.82547197  0.83239458    -0.00300
H2367       H  0.93293971  0.84241062  0.91460855     0.14200
H2368       H  0.91836066  0.91925753  0.83570751     0.14000
C2369       C  0.84840891  0.88237411  0.72540033    -0.27000
C2370       C  0.88155906  0.87381475  0.70583639    -0.15100
C2371       C  0.91511625  0.86682634  0.72623698     0.35600
C2372       C  0.91397312  0.86740488  0.76566454    -0.26400
C2373       C  0.88060712  0.87548890  0.78518343    -0.15700
C2374       C  0.84793238  0.88500789  0.76470950     0.36600
N2375       N  0.81460746  0.89919459  0.78250318    -0.89900
H2376       H  0.82301707  0.88886836  0.70984637     0.17800
H2377       H  0.93940473  0.86122102  0.78127147     0.17800
N2378       N  0.95055188  0.85868521  0.70832091    -0.89000
H2379       H  0.80915683  0.92450335  0.77080468     0.35100
H2380       H  0.81946113  0.90457751  0.81094967     0.40200
H2381       H  0.94813735  0.85721053  0.67912930     0.39800
H2382       H  0.95890607  0.83295782  0.71697767     0.34700
C2383       C  0.90088930  0.73225741  0.63461086    -0.27000
C2384       C  0.88116768  0.71405143  0.60610643    -0.15100
C2385       C  0.86437837  0.73407954  0.57678127     0.35600
C2386       C  0.86500840  0.77201801  0.57888061    -0.26400
C2387       C  0.88162831  0.79007379  0.60957471    -0.15700
C2388       C  0.90035821  0.77007693  0.63738210     0.36600
N2389       N  0.91865274  0.78814592  0.66835864    -0.89900
H2390       H  0.91610591  0.71673867  0.65525206     0.17800
H2391       H  0.85155243  0.78748961  0.55690856     0.17800
N2392       N  0.84603557  0.71712477  0.54508061    -0.89000
H2393       H  0.93327661  0.76958779  0.68487124     0.35100
H2394       H  0.89744684  0.79879018  0.68557313     0.40200
H2395       H  0.84964447  0.68915490  0.54538090     0.39800
H2396       H  0.85976980  0.72592475  0.52078767     0.34700
C2397       C  0.87852870  0.66001699  0.76718357    -0.27000
C2398       C  0.87738713  0.62617611  0.78475273    -0.15100
C2399       C  0.87325802  0.59467601  0.76194773     0.35600
C2400       C  0.87278460  0.59774203  0.72268864    -0.26400
C2401       C  0.87514188  0.63159217  0.70510298    -0.15700
C2402       C  0.87684697  0.66303381  0.72788461     0.36600
N2403       N  0.87749407  0.69818982  0.71153993    -0.89900
H2404       H  0.88099324  0.68452478  0.78406294     0.17800
H2405       H  0.86977072  0.57334068  0.70572155     0.17800
N2406       N  0.86722172  0.55950645  0.77748505    -0.89000
H2407       H  0.90180437  0.71157971  0.72101976     0.35100
H2408       H  0.85416302  0.71257738  0.72162979     0.40200
H2409       H  0.84483016  0.56092881  0.79656400     0.39800
H2410       H  0.89152660  0.55114040  0.79136695     0.34700
C2411       C  0.86713407  0.76998244  0.90097511    -0.27000
C2412       C  0.89263681  0.78756794  0.87716198    -0.15100
C2413       C  0.91732147  0.76699901  0.85441619     0.37400
C2414       C  0.91506490  0.72890552  0.85505977    -0.26400
C2415       C  0.88874252  0.71141565  0.87814398    -0.15700
C2416       C  0.86530919  0.73200110  0.90207317     0.36600
N2417       N  0.83943063  0.71420323  0.92696466    -0.89900
H2418       H  0.84822934  0.78601933  0.91833986     0.17800
H2419       H  0.93323785  0.71281220  0.83698871     0.17800
N2420       N  0.94412269  0.78484888  0.83054772    -0.89000
H2421       H  0.82397762  0.73322522  0.94251966     0.35100
H2422       H  0.85535252  0.69955860  0.94630805     0.40200
H2423       H  0.92891592  0.79886939  0.81018164     0.39800
H2424       H  0.96059293  0.76581337  0.81609515     0.34700
C2425       C  0.72199688  0.63253142  0.58883316    -0.27000
C2426       C  0.70479584  0.63023441  0.62423941    -0.15100
C2427       C  0.72770185  0.62697904  0.65664863     0.35600
C2428       C  0.76701989  0.62719036  0.65296146    -0.26400
C2429       C  0.78418928  0.62983408  0.61755804    -0.15700
C2430       C  0.76122277  0.63225717  0.58508618     0.36600
N2431       N  0.77666634  0.63585462  0.54809819    -0.89900
H2432       H  0.70472004  0.63501885  0.56381507     0.17800
H2433       H  0.78435102  0.62471073  0.67794838     0.17800
N2434       N  0.71207321  0.62169615  0.69334813    -0.89000
H2435       H  0.79228490  0.61280322  0.54130266     0.35100
H2436       H  0.79437855  0.65842370  0.54795582     0.40200
H2437       H  0.69374127  0.59948164  0.69223704     0.39800
H2438       H  0.69701093  0.64470437  0.70140123     0.34700
C2439       C  0.64090266  0.77407746  0.60315757    -0.27000
C2440       C  0.60936763  0.79255262  0.61713852    -0.15100
C2441       C  0.57747833  0.77265536  0.62889964     0.35600
C2442       C  0.57913079  0.73453684  0.62909671    -0.26400
C2443       C  0.61182666  0.71622541  0.61748124    -0.15700
C2444       C  0.64262275  0.73630603  0.60345956     0.36600
N2445       N  0.67583748  0.71910779  0.58902527    -0.89900
H2446       H  0.66446374  0.78913872  0.59195907     0.17800
H2447       H  0.55528260  0.71906090  0.63931166     0.17800
N2448       N  0.54414740  0.79108687  0.64169873    -0.89000
H2449       H  0.66781984  0.70073531  0.56789046     0.35100
H2450       H  0.68868955  0.70493084  0.61076368     0.40200
H2451       H  0.53250948  0.80440555  0.61866570     0.39800
H2452       H  0.52380325  0.77247648  0.65057371     0.34700
C2453       C  0.76662094  0.90734898  0.62372044    -0.27000
C2454       C  0.78575169  0.87413814  0.62135765    -0.15100
C2455       C  0.76463710  0.84164038  0.62138037     0.35600
C2456       C  0.72510505  0.84312730  0.62358069    -0.26400
C2457       C  0.70591655  0.87624695  0.62407612    -0.15700
C2458       C  0.72698895  0.90877307  0.62534969     0.36600
N2459       N  0.70818660  0.94304221  0.62934690    -0.89900
H2460       H  0.78271750  0.93232056  0.62486123     0.17800
H2461       H  0.70926338  0.81816337  0.62386019     0.17800
N2462       N  0.78313979  0.80724695  0.61758729    -0.89000
H2463       H  0.72775654  0.96427852  0.63008900     0.35100
H2464       H  0.69450392  0.94325780  0.65541513     0.40200
H2465       H  0.79475803  0.80620680  0.59060134     0.39800
H2466       H  0.76362885  0.78600451  0.61890470     0.34700
C2467       C  0.64518168  0.89422576  0.73254212    -0.27000
C2468       C  0.61513220  0.87759992  0.71329260    -0.15100
C2469       C  0.58482624  0.86249427  0.73381910     0.35600
C2470       C  0.58642032  0.86271131  0.77315767    -0.26400
C2471       C  0.61734824  0.87769115  0.79229995    -0.15700
C2472       C  0.64588993  0.89546108  0.77205074     0.36600
N2473       N  0.67476715  0.91545593  0.79173385    -0.89900
H2474       H  0.66764570  0.90691090  0.71667180     0.17800
H2475       H  0.56328289  0.85108818  0.78885850     0.17800
N2476       N  0.55242867  0.84626992  0.71595298    -0.89000
H2477       H  0.69351500  0.92722120  0.77269204     0.35100
H2478       H  0.66171590  0.93674298  0.80628778     0.40200
H2479       H  0.55401882  0.84760875  0.68673553     0.39800
H2480       H  0.52887937  0.86153426  0.72381549     0.34700
C2481       C  0.77285127  0.85523955  0.84814261    -0.27000
C2482       C  0.79329867  0.86446562  0.88065766    -0.15100
C2483       C  0.77283023  0.87204604  0.91403807     0.35600
C2484       C  0.73309456  0.87446034  0.91271412    -0.26400
C2485       C  0.71283849  0.86830174  0.87911484    -0.15700
C2486       C  0.73342683  0.85754845  0.84674068     0.36600
N2487       N  0.71513113  0.84994588  0.81163981    -0.89900
H2488       H  0.78730215  0.84750941  0.82258939     0.17800
H2489       H  0.71784947  0.88056365  0.93839429     0.17800
N2490       N  0.79216309  0.87610926  0.94940027    -0.89000
H2491       H  0.72730880  0.86634146  0.79111271     0.35100
H2492       H  0.72090463  0.82306917  0.80416435     0.40200
H2493       H  0.80504099  0.85136748  0.95528868     0.39800
H2494       H  0.77304559  0.88119513  0.97121416     0.34700
C2495       C  0.61794694  0.66560681  0.77628755    -0.27000
C2496       C  0.61896143  0.63250532  0.79532860    -0.15100
C2497       C  0.61975125  0.59989771  0.77412504     0.35600
C2498       C  0.61754826  0.60116662  0.73466164    -0.26400
C2499       C  0.61537992  0.63428582  0.71577322    -0.15700
C2500       C  0.61572729  0.66676586  0.73688204     0.36600
N2501       N  0.61263763  0.70097941  0.71855272    -0.89900
H2502       H  0.61826787  0.69082824  0.79193878     0.17800
H2503       H  0.61849457  0.57616067  0.71846856     0.17800
N2504       N  0.62393453  0.56569769  0.79260084    -0.89000
H2505       H  0.63620087  0.71663282  0.72589368     0.35100
H2506       H  0.58864655  0.71412978  0.72891658     0.40200
H2507       H  0.65033220  0.56572661  0.80576718     0.39800
H2508       H  0.62416541  0.54440479  0.77297177     0.34700
C2509       C  0.77205308  0.66208963  0.88071436    -0.27000
C2510       C  0.79065478  0.62868128  0.87954436    -0.15100
C2511       C  0.76920654  0.59636872  0.87977180     0.35600
C2512       C  0.72970073  0.59832629  0.88195526    -0.26400
C2513       C  0.71107345  0.63181024  0.88370361    -0.15700
C2514       C  0.73259200  0.66405684  0.88351652     0.36600
N2515       N  0.71454293  0.69865804  0.88740576    -0.89900
H2516       H  0.78841334  0.68685279  0.88032059     0.17800
H2517       H  0.71329874  0.57352494  0.88134677     0.17800
N2518       N  0.78744675  0.56173870  0.87667640    -0.89000
H2519       H  0.73433468  0.71965421  0.88602429     0.35100
H2520       H  0.70303357  0.69983147  0.91441473     0.40200
H2521       H  0.80034011  0.56034290  0.85026181     0.39800
H2522       H  0.76762616  0.54073113  0.87739610     0.34700
C2523       C  0.59688802  0.73278717  0.86128341    -0.27000
C2524       C  0.61367716  0.71575566  0.89193246    -0.15100
C2525       C  0.62783649  0.73696434  0.92229773     0.35600
C2526       C  0.62715015  0.77484517  0.91963720    -0.26400
C2527       C  0.61267367  0.79171655  0.88757353    -0.15700
C2528       C  0.59657693  0.77035713  0.85859918     0.36600
N2529       N  0.57972561  0.78603187  0.82609891    -0.89900
H2530       H  0.58434475  0.71669309  0.83891702     0.17800
H2531       H  0.63924415  0.79118546  0.94214032     0.17800
N2532       N  0.64426205  0.72133634  0.95535758    -0.89000
H2533       H  0.60066274  0.79982866  0.81138863     0.35100
H2534       H  0.55909761  0.80436001  0.83507819     0.40200
H2535       H  0.64413454  0.69311683  0.95409156     0.39800
H2536       H  0.62745184  0.72875321  0.97833156     0.34700
loop_ 
_geom_bond_atom_site_label_1 
_geom_bond_atom_site_label_2 
_geom_bond_distance 
_geom_bond_site_symmetry_2 
_ccdc_geom_bond_type 
C1           N19   1.351       .  A
C1           C38   1.462       .  S
C1           C78   1.505       .  S
N2           N19   1.324       .  A
N2           N24   1.319       .  A
N2          Co39   2.083       .  S
C3           N28   1.340       .  A
C3           C41   1.461       .  S
C3           H48   1.082       .  S
H4           C45   1.082       .  S
C5           N29   1.343       .  A
C5            C9   1.466       .  S
C5           H34   1.082       .  S
Co6          N14   2.083       .  S
Co6        N1292   2.082       .  S
Co6        N1948   2.092       .  S
Co6         N656   2.076       .  S
Co6       Cl1952   2.447   1_554  S
N7           C45   1.343       .  A
N7           N14   1.320       .  A
N7         Co959   2.087   1_554  S
Co8          N15   2.086       .  S
Co8         N958   2.087   1_545  S
Co8         N645   2.083   1_545  S
Co8         N345   2.084       .  S
Co8       Cl1635   2.454       .  S
C9           N47   1.351       .  A
C9          C138   1.512       .  S
N10          N17   1.320       .  A
N10          N40   1.321       .  A
N10        Co677   2.079       .  S
N11          N29   1.319       .  A
N11          N47   1.324       .  A
N11        Co642   2.083       .  S
N12          C41   1.348       .  A
N12          N22   1.322       .  A
H13          C38   1.082       .  S
N14          N35   1.322       .  A
N15          N33   1.318       .  A
N15          N20   1.324       .  A
C16          N20   1.352       .  A
C16          C44   1.461       .  S
C16         C102   1.509       .  S
N17          C32   1.345       .  A
N17        Co356   2.089       .  S
C18          N46   1.344       .  A
C18          C21   1.465       .  S
C18          H52   1.081       .  S
C21          N42   1.352       .  A
C21          C90   1.513       .  S
N22          N28   1.320       .  A
N22        Co640   2.076       .  S
N23          C49   1.340       .  A
N23          N25   1.319       .  A
N23        Co990   2.082       .  S
N24          C38   1.340       .  A
N24       Co1274   2.082   1_455  S
N25          N53   1.323       .  A
N25         Co43   2.084       .  S
H26          C49   1.082       .  S
H27          C44   1.081       .  S
N28        Co325   2.084   1_554  S
N29       Co1945   2.095       .  S
N30          N42   1.324       .  A
N30          N46   1.319       .  A
N30        Co673   2.086       .  S
C31          N35   1.350       .  A
C31          C45   1.463       .  S
C31         C126   1.507       .  S
C32          C51   1.463       .  S
C32          H36   1.081       .  S
N33          C44   1.342       .  A
N33       Co1311   2.084       .  S
C37          N53   1.350       .  A
C37          C49   1.462       .  S
C37          C54   1.505       .  S
Co39        N334   2.089   1_554  S
Co39        N974   2.082   1_554  S
Co39        N664   2.086       .  S
Co39       Cl684   2.454   1_454  S
N40          C51   1.350       .  A
C41         C114   1.500       .  S
Co43        N644   2.079   1_545  S
Co43       N1931   2.095   1_445  S
Co43       N1301   2.084   1_455  S
Co43       Cl367   2.445   1_455  S
N46       Co1908   2.092   1_455  S
Cl50      Co1908   2.447   1_556  S
Cl50      Co1593   2.454       .  S
Cl50       Co673   2.454   1_656  S
Cl50       Co360   2.445   1_655  S
C51          C66   1.507       .  S
C54          C55   1.537       .  S
C54          C60   1.539       .  S
C54          C58   1.531       .  S
C55          H62   1.086       .  S
C55          C56   1.368       .  D
C56          C57   1.539       .  S
C56         C294   1.487       .  S
C57          C61   1.538       .  S
C57          C59   1.539       .  S
C57          H63   1.110       .  S
C58          H64   1.086       .  S
C58          C59   1.363       .  D
C59         C305   1.473       .  S
C60          H65   1.085       .  S
C60          C61   1.367       .  D
C61         C277   1.491       .  S
C66          C67   1.536       .  S
C66          C72   1.544       .  S
C66          C70   1.532       .  S
C67          H74   1.086       .  S
C67          C68   1.356       .  D
C68          C69   1.537       .  S
C68         C252   1.474       .  S
C69          C73   1.545       .  S
C69          C71   1.536       .  S
C69          H75   1.105       .  S
C70          H76   1.086       .  S
C70          C71   1.363       .  D
C71         C308   1.476       .  S
C72          H77   1.085       .  S
C72          C73   1.378       .  D
C73         C266   1.506       .  S
C78          C79   1.540       .  S
C78          C84   1.536       .  S
C78          C82   1.535       .  S
C79          H86   1.086       .  S
C79          C80   1.368       .  D
C80          C81   1.538       .  S
C80         C238   1.489       .  S
C81          C85   1.534       .  S
C81          C83   1.542       .  S
C81          H87   1.111       .  S
C82          H88   1.086       .  S
C82          C83   1.365       .  D
C83         C221   1.482       .  S
C84          H89   1.086       .  S
C84          C85   1.362       .  D
C85         C249   1.472       .  S
C90          C91   1.539       .  S
C90          C96   1.539       .  S
C90          C94   1.536       .  S
C91          H98   1.085       .  S
C91          C92   1.369       .  D
C92          C93   1.540       .  S
C92         C280   1.487       .  S
C93          C97   1.535       .  S
C93          C95   1.538       .  S
C93          H99   1.108       .  S
C94         H100   1.086       .  S
C94          C95   1.366       .  D
C95         C224   1.481       .  S
C96         H101   1.086       .  S
C96          C97   1.365       .  D
C97         C207   1.482       .  S
C102        C103   1.541       .  S
C102        C108   1.537       .  S
C102        C106   1.533       .  S
C103        H110   1.083       .  S
C103        C104   1.370       .  D
C104        C105   1.540       .  S
C104        C179   1.491       .  S
C105        C109   1.537       .  S
C105        C107   1.539       .  S
C105        H111   1.111       .  S
C106        H112   1.086       .  S
C106        C107   1.364       .  D
C107        C196   1.478       .  S
C108        H113   1.086       .  S
C108        C109   1.364       .  D
C109        C291   1.485       .  S
C114        C115   1.535       .  S
C114        C120   1.538       .  S
C114        C118   1.529       .  S
C115        H122   1.085       .  S
C115        C116   1.364       .  D
C116        C117   1.540       .  S
C116        C210   1.481       .  S
C117        C121   1.543       .  S
C117        C119   1.543       .  S
C117        H123   1.110       .  S
C118        H124   1.086       .  S
C118        C119   1.362       .  D
C119        C165   1.474       .  S
C120        H125   1.086       .  S
C120        C121   1.367       .  D
C121        C182   1.494       .  S
C126        C127   1.539       .  S
C126        C132   1.538       .  S
C126        C130   1.535       .  S
C127        H134   1.086       .  S
C127        C128   1.361       .  D
C128        C129   1.533       .  S
C128        C151   1.478       .  S
C129        C133   1.541       .  S
C129        C131   1.536       .  S
C129        H135   1.110       .  S
C130        H136   1.086       .  S
C130        C131   1.365       .  D
C131        C168   1.474       .  S
C132        H137   1.086       .  S
C132        C133   1.369       .  D
C133        C235   1.490       .  S
C138        C139   1.543       .  S
C138        C144   1.533       .  S
C138        C142   1.538       .  S
C139        H146   1.084       .  S
C139        C140   1.372       .  D
C140        C141   1.546       .  S
C140        C263   1.505       .  S
C141        C145   1.542       .  S
C141        C143   1.535       .  S
C141        H147   1.109       .  S
C142        H148   1.086       .  S
C142        C143   1.367       .  D
C143        C193   1.478       .  S
C144        H149   1.086       .  S
C144        C145   1.360       .  D
C145        C154   1.480       .  S
C150        H157   1.085       .  S
C150        C151   1.400       .  A
C150        C155   1.399       .  A
C151        C152   1.418       .  A
C152        C153   1.402       .  A
C152        N159   1.439       .  S
C153        H158   1.084       .  S
C153        C154   1.402       .  A
C154        C155   1.415       .  A
C155        N156   1.437       .  S
N156        H160   1.046       .  S
N156        H161   1.042       .  S
N159        H162   1.042       .  S
N159        H163   1.046       .  S
C164        H171   1.081       .  S
C164        C165   1.396       .  A
C164        C169   1.399       .  A
C165        C166   1.416       .  A
C166        C167   1.403       .  A
C166        N173   1.437       .  S
C167        H172   1.084       .  S
C167        C168   1.401       .  A
C168        C169   1.407       .  A
C169        N170   1.435       .  S
N170        H174   1.046       .  S
N170        H175   1.044       .  S
N173        H176   1.041       .  S
N173        H177   1.046       .  S
C178        H185   1.084       .  S
C178        C179   1.404       .  A
C178        C183   1.404       .  A
C179        C180   1.418       .  A
C180        C181   1.401       .  A
C180        N187   1.432       .  S
C181        H186   1.084       .  S
C181        C182   1.406       .  A
C182        C183   1.410       .  A
C183        N184   1.428       .  S
N184        H188   1.046       .  S
N184        H189   1.046       .  S
N187        H190   1.045       .  S
N187        H191   1.042       .  S
C192        H199   1.084       .  S
C192        C193   1.401       .  A
C192        C197   1.405       .  A
C193        C194   1.410       .  A
C194        C195   1.409       .  A
C194        N201   1.437       .  S
C195        H200   1.084       .  S
C195        C196   1.403       .  A
C196        C197   1.407       .  A
C197        N198   1.437       .  S
N198        H202   1.046       .  S
N198        H203   1.046       .  S
N201        H204   1.045       .  S
N201        H205   1.046       .  S
C206        H213   1.084       .  S
C206        C207   1.402       .  A
C206        C211   1.396       .  A
C207        C208   1.415       .  A
C208        C209   1.399       .  A
C208        N215   1.432       .  S
C209        H214   1.084       .  S
C209        C210   1.402       .  A
C210        C211   1.416       .  A
C211        N212   1.431       .  S
N212        H216   1.043       .  S
N212        H217   1.042       .  S
N215        H218   1.045       .  S
N215        H219   1.042       .  S
C220        H227   1.080       .  S
C220        C221   1.400       .  A
C220        C225   1.397       .  A
C221        C222   1.412       .  A
C222        C223   1.409       .  A
C222        N229   1.437       .  S
C223        H228   1.084       .  S
C223        C224   1.403       .  A
C224        C225   1.412       .  A
C225        N226   1.432       .  S
N226        H230   1.045       .  S
N226        H231   1.043       .  S
N229        H232   1.045       .  S
N229        H233   1.046       .  S
C234        H241   1.083       .  S
C234        C235   1.405       .  A
C234        C239   1.407       .  A
C235        C236   1.412       .  A
C236        C237   1.404       .  A
C236        N243   1.436       .  S
C237        H242   1.078       .  S
C237        C238   1.401       .  A
C238        C239   1.413       .  A
C239        N240   1.438       .  S
N240        H244   1.046       .  S
N240        H245   1.046       .  S
N243        H246   1.044       .  S
N243        H247   1.046       .  S
C248        H255   1.084       .  S
C248        C249   1.402       .  A
C248        C253   1.405       .  A
C249        C250   1.415       .  A
C250        C251   1.399       .  A
C250        N257   1.438       .  S
C251        H256   1.082       .  S
C251        C252   1.399       .  A
C252        C253   1.407       .  A
C253        N254   1.437       .  S
N254        H258   1.046       .  S
N254        H259   1.045       .  S
N257        H260   1.042       .  S
N257        H261   1.045       .  S
C262        H269   1.079       .  S
C262        C263   1.402       .  A
C262        C267   1.401       .  A
C263        C264   1.416       .  A
C264        C265   1.412       .  A
C264        N271   1.437       .  S
C265        H270   1.083       .  S
C265        C266   1.409       .  A
C266        C267   1.416       .  A
C267        N268   1.430       .  S
N268        H272   1.046       .  S
N268        H273   1.046       .  S
N271        H274   1.046       .  S
N271        H275   1.046       .  S
C276        H283   1.080       .  S
C276        C277   1.404       .  A
C276        C281   1.404       .  A
C277        C278   1.414       .  A
C278        C279   1.406       .  A
C278        N285   1.438       .  S
C279        H284   1.083       .  S
C279        C280   1.404       .  A
C280        C281   1.408       .  A
C281        N282   1.432       .  S
N282        H286   1.046       .  S
N282        H287   1.046       .  S
N285        H288   1.046       .  S
N285        H289   1.046       .  S
C290        H297   1.082       .  S
C290        C291   1.401       .  A
C290        C295   1.404       .  A
C291        C292   1.413       .  A
C292        C293   1.404       .  A
C292        N299   1.438       .  S
C293        H298   1.083       .  S
C293        C294   1.404       .  A
C294        C295   1.412       .  A
C295        N296   1.436       .  S
N296        H300   1.046       .  S
N296        H301   1.044       .  S
N299        H302   1.045       .  S
N299        H303   1.046       .  S
C304        H311   1.082       .  S
C304        C305   1.397       .  A
C304        C309   1.392       .  A
C305        C306   1.417       .  A
C306        C307   1.404       .  A
C306        N313   1.438       .  S
C307        H312   1.084       .  S
C307        C308   1.402       .  A
C308        C309   1.410       .  A
C309        N310   1.429       .  S
N310        H314   1.043       .  S
N310        H315   1.045       .  S
N313        H316   1.043       .  S
N313        H317   1.045       .  S
C318        N336   1.351       .  A
C318        C355   1.462       .  S
C318        C395   1.505       .  S
N319        N336   1.324       .  A
N319        N341   1.319       .  A
N319       Co356   2.083       .  S
C320        N345   1.340       .  A
C320        C358   1.461       .  S
C320        H365   1.082       .  S
H321        C362   1.082       .  S
C322        N346   1.343       .  A
C322        C326   1.466       .  S
C322        H351   1.082       .  S
Co323      N1609   2.082       .  S
Co323       N331   2.083       .  S
Co323      N2265   2.092       .  S
Co323       N973   2.076       .  S
Co323     Cl2269   2.447       .  S
N324        C362   1.343       .  A
N324        N331   1.320       .  A
N324       Co642   2.087       .  S
Co325       N641   2.087   1_546  S
Co325       N962   2.083   1_545  S
Co325       N332   2.086       .  S
Co325     Cl1318   2.454       .  S
C326        N364   1.351       .  A
C326        C455   1.512       .  S
N327        N334   1.320       .  A
N327        N357   1.321       .  A
N327       Co994   2.079       .  S
N328        N346   1.319       .  A
N328        N364   1.324       .  A
N328       Co959   2.083       .  S
N329        C358   1.348       .  A
N329        N339   1.322       .  A
H330        C355   1.082       .  S
N331        N352   1.322       .  A
N332        N350   1.318       .  A
N332        N337   1.324       .  A
C333        N337   1.352       .  A
C333        C361   1.461       .  S
C333        C419   1.509       .  S
N334        C349   1.345       .  A
C335        N363   1.344       .  A
C335        C338   1.465       .  S
C335        H369   1.081       .  S
C338        N359   1.352       .  A
C338        C407   1.513       .  S
N339        N345   1.320       .  A
N339       Co957   2.076       .  S
N340        C366   1.340       .  A
N340        N342   1.319       .  A
N340       Co673   2.082   1_556  S
N341        C355   1.340       .  A
N341      Co1591   2.082   1_455  S
N342        N370   1.323       .  A
N342       Co360   2.084       .  S
H343        C366   1.082       .  S
H344        C361   1.081       .  S
N346      Co2262   2.095       .  S
N347        N359   1.324       .  A
N347        N363   1.319       .  A
N347       Co990   2.086       .  S
C348        N352   1.350       .  A
C348        C362   1.463       .  S
C348        C443   1.507       .  S
C349        C368   1.463       .  S
C349        H353   1.081       .  S
N350        C361   1.342       .  A
N350      Co1628   2.084       .  S
C354        N370   1.350       .  A
C354        C366   1.462       .  S
C354        C371   1.505       .  S
Co356       N657   2.082       .  S
Co356       N981   2.086       .  S
Co356     Cl1001   2.454   1_455  S
N357        C368   1.350       .  A
C358        C431   1.500       .  S
Co360       N961   2.079   1_545  S
Co360      N2248   2.095   1_445  S
Co360      N1618   2.084   1_455  S
N363      Co2225   2.092   1_455  S
Cl367     Co2225   2.447       .  S
Cl367     Co1276   2.454       .  S
Cl367      Co990   2.454   1_655  S
C368        C383   1.507       .  S
C371        C372   1.537       .  S
C371        C377   1.539       .  S
C371        C375   1.531       .  S
C372        H379   1.086       .  S
C372        C373   1.368       .  D
C373        C374   1.539       .  S
C373        C611   1.487       .  S
C374        C378   1.538       .  S
C374        C376   1.539       .  S
C374        H380   1.110       .  S
C375        H381   1.086       .  S
C375        C376   1.363       .  D
C376        C622   1.473       .  S
C377        H382   1.085       .  S
C377        C378   1.367       .  D
C378        C594   1.491       .  S
C383        C384   1.536       .  S
C383        C389   1.544       .  S
C383        C387   1.532       .  S
C384        H391   1.086       .  S
C384        C385   1.356       .  D
C385        C386   1.537       .  S
C385        C569   1.474       .  S
C386        C390   1.545       .  S
C386        C388   1.536       .  S
C386        H392   1.105       .  S
C387        H393   1.086       .  S
C387        C388   1.363       .  D
C388        C625   1.476       .  S
C389        H394   1.085       .  S
C389        C390   1.378       .  D
C390        C583   1.506       .  S
C395        C396   1.540       .  S
C395        C401   1.536       .  S
C395        C399   1.535       .  S
C396        H403   1.086       .  S
C396        C397   1.368       .  D
C397        C398   1.538       .  S
C397        C555   1.489       .  S
C398        C402   1.534       .  S
C398        C400   1.542       .  S
C398        H404   1.111       .  S
C399        H405   1.086       .  S
C399        C400   1.365       .  D
C400        C538   1.482       .  S
C401        H406   1.086       .  S
C401        C402   1.362       .  D
C402        C566   1.472       .  S
C407        C408   1.539       .  S
C407        C413   1.539       .  S
C407        C411   1.536       .  S
C408        H415   1.085       .  S
C408        C409   1.369       .  D
C409        C410   1.540       .  S
C409        C597   1.487       .  S
C410        C414   1.535       .  S
C410        C412   1.538       .  S
C410        H416   1.108       .  S
C411        H417   1.086       .  S
C411        C412   1.366       .  D
C412        C541   1.481       .  S
C413        H418   1.086       .  S
C413        C414   1.365       .  D
C414        C524   1.482       .  S
C419        C420   1.541       .  S
C419        C425   1.537       .  S
C419        C423   1.533       .  S
C420        H427   1.083       .  S
C420        C421   1.370       .  D
C421        C422   1.540       .  S
C421        C496   1.491       .  S
C422        C426   1.537       .  S
C422        C424   1.539       .  S
C422        H428   1.111       .  S
C423        H429   1.086       .  S
C423        C424   1.364       .  D
C424        C513   1.478       .  S
C425        H430   1.086       .  S
C425        C426   1.364       .  D
C426        C608   1.485       .  S
C431        C432   1.535       .  S
C431        C437   1.538       .  S
C431        C435   1.529       .  S
C432        H439   1.085       .  S
C432        C433   1.364       .  D
C433        C434   1.540       .  S
C433        C527   1.481       .  S
C434        C438   1.543       .  S
C434        C436   1.543       .  S
C434        H440   1.110       .  S
C435        H441   1.086       .  S
C435        C436   1.362       .  D
C436        C482   1.474       .  S
C437        H442   1.086       .  S
C437        C438   1.367       .  D
C438        C499   1.494       .  S
C443        C444   1.539       .  S
C443        C449   1.538       .  S
C443        C447   1.535       .  S
C444        H451   1.086       .  S
C444        C445   1.361       .  D
C445        C446   1.533       .  S
C445        C468   1.478       .  S
C446        C450   1.541       .  S
C446        C448   1.536       .  S
C446        H452   1.110       .  S
C447        H453   1.086       .  S
C447        C448   1.365       .  D
C448        C485   1.474       .  S
C449        H454   1.086       .  S
C449        C450   1.369       .  D
C450        C552   1.490       .  S
C455        C456   1.543       .  S
C455        C461   1.533       .  S
C455        C459   1.538       .  S
C456        H463   1.084       .  S
C456        C457   1.372       .  D
C457        C458   1.546       .  S
C457        C580   1.505       .  S
C458        C462   1.542       .  S
C458        C460   1.535       .  S
C458        H464   1.109       .  S
C459        H465   1.086       .  S
C459        C460   1.367       .  D
C460        C510   1.478       .  S
C461        H466   1.086       .  S
C461        C462   1.360       .  D
C462        C471   1.480       .  S
C467        H474   1.085       .  S
C467        C468   1.400       .  A
C467        C472   1.399       .  A
C468        C469   1.418       .  A
C469        C470   1.402       .  A
C469        N476   1.439       .  S
C470        H475   1.084       .  S
C470        C471   1.402       .  A
C471        C472   1.415       .  A
C472        N473   1.437       .  S
N473        H477   1.046       .  S
N473        H478   1.042       .  S
N476        H479   1.042       .  S
N476        H480   1.046       .  S
C481        H488   1.081       .  S
C481        C482   1.396       .  A
C481        C486   1.399       .  A
C482        C483   1.416       .  A
C483        C484   1.403       .  A
C483        N490   1.437       .  S
C484        H489   1.084       .  S
C484        C485   1.401       .  A
C485        C486   1.407       .  A
C486        N487   1.435       .  S
N487        H491   1.046       .  S
N487        H492   1.044       .  S
N490        H493   1.041       .  S
N490        H494   1.046       .  S
C495        H502   1.084       .  S
C495        C496   1.404       .  A
C495        C500   1.404       .  A
C496        C497   1.418       .  A
C497        C498   1.401       .  A
C497        N504   1.432       .  S
C498        H503   1.084       .  S
C498        C499   1.406       .  A
C499        C500   1.410       .  A
C500        N501   1.428       .  S
N501        H505   1.046       .  S
N501        H506   1.046       .  S
N504        H507   1.045       .  S
N504        H508   1.042       .  S
C509        H516   1.084       .  S
C509        C510   1.401       .  A
C509        C514   1.405       .  A
C510        C511   1.410       .  A
C511        C512   1.409       .  A
C511        N518   1.437       .  S
C512        H517   1.084       .  S
C512        C513   1.403       .  A
C513        C514   1.407       .  A
C514        N515   1.437       .  S
N515        H519   1.046       .  S
N515        H520   1.046       .  S
N518        H521   1.045       .  S
N518        H522   1.046       .  S
C523        H530   1.084       .  S
C523        C524   1.402       .  A
C523        C528   1.396       .  A
C524        C525   1.415       .  A
C525        C526   1.399       .  A
C525        N532   1.432       .  S
C526        H531   1.084       .  S
C526        C527   1.402       .  A
C527        C528   1.416       .  A
C528        N529   1.431       .  S
N529        H533   1.043       .  S
N529        H534   1.042       .  S
N532        H535   1.045       .  S
N532        H536   1.042       .  S
C537        H544   1.080       .  S
C537        C538   1.400       .  A
C537        C542   1.397       .  A
C538        C539   1.412       .  A
C539        C540   1.409       .  A
C539        N546   1.437       .  S
C540        H545   1.084       .  S
C540        C541   1.403       .  A
C541        C542   1.412       .  A
C542        N543   1.432       .  S
N543        H547   1.045       .  S
N543        H548   1.043       .  S
N546        H549   1.045       .  S
N546        H550   1.046       .  S
C551        H558   1.083       .  S
C551        C552   1.405       .  A
C551        C556   1.407       .  A
C552        C553   1.412       .  A
C553        C554   1.404       .  A
C553        N560   1.436       .  S
C554        H559   1.078       .  S
C554        C555   1.401       .  A
C555        C556   1.413       .  A
C556        N557   1.438       .  S
N557        H561   1.046       .  S
N557        H562   1.046       .  S
N560        H563   1.044       .  S
N560        H564   1.046       .  S
C565        H572   1.084       .  S
C565        C566   1.402       .  A
C565        C570   1.405       .  A
C566        C567   1.415       .  A
C567        C568   1.399       .  A
C567        N574   1.438       .  S
C568        H573   1.082       .  S
C568        C569   1.399       .  A
C569        C570   1.407       .  A
C570        N571   1.437       .  S
N571        H575   1.046       .  S
N571        H576   1.045       .  S
N574        H577   1.042       .  S
N574        H578   1.045       .  S
C579        H586   1.079       .  S
C579        C580   1.402       .  A
C579        C584   1.401       .  A
C580        C581   1.416       .  A
C581        C582   1.412       .  A
C581        N588   1.437       .  S
C582        H587   1.083       .  S
C582        C583   1.409       .  A
C583        C584   1.416       .  A
C584        N585   1.430       .  S
N585        H589   1.046       .  S
N585        H590   1.046       .  S
N588        H591   1.046       .  S
N588        H592   1.046       .  S
C593        H600   1.080       .  S
C593        C594   1.404       .  A
C593        C598   1.404       .  A
C594        C595   1.414       .  A
C595        C596   1.406       .  A
C595        N602   1.438       .  S
C596        H601   1.083       .  S
C596        C597   1.404       .  A
C597        C598   1.408       .  A
C598        N599   1.432       .  S
N599        H603   1.046       .  S
N599        H604   1.046       .  S
N602        H605   1.046       .  S
N602        H606   1.046       .  S
C607        H614   1.082       .  S
C607        C608   1.401       .  A
C607        C612   1.404       .  A
C608        C609   1.413       .  A
C609        C610   1.404       .  A
C609        N616   1.438       .  S
C610        H615   1.083       .  S
C610        C611   1.404       .  A
C611        C612   1.412       .  A
C612        N613   1.436       .  S
N613        H617   1.046       .  S
N613        H618   1.044       .  S
N616        H619   1.045       .  S
N616        H620   1.046       .  S
C621        H628   1.082       .  S
C621        C622   1.397       .  A
C621        C626   1.392       .  A
C622        C623   1.417       .  A
C623        C624   1.404       .  A
C623        N630   1.438       .  S
C624        H629   1.084       .  S
C624        C625   1.402       .  A
C625        C626   1.410       .  A
C626        N627   1.429       .  S
N627        H631   1.043       .  S
N627        H632   1.045       .  S
N630        H633   1.043       .  S
N630        H634   1.045       .  S
C635        N653   1.351       .  A
C635        C672   1.462       .  S
C635        C712   1.505       .  S
N636        N653   1.324       .  A
N636        N658   1.319       .  A
N636       Co673   2.083   1_565  S
C637        N662   1.340       .  A
C637        C675   1.461       .  S
C637        H682   1.082       .  S
H638        C679   1.082       .  S
C639        N663   1.343       .  A
C639        C643   1.466       .  S
C639        H668   1.082       .  S
Co640      N1926   2.082   1_545  S
Co640       N648   2.083   1_545  S
Co640      N1314   2.092       .  S
Co640     Cl1318   2.447   1_554  S
N641        C679   1.343       .  A
N641        N648   1.320       .  A
Co642       N979   2.084       .  S
Co642       N649   2.086       .  S
Co642     Cl2269   2.454       .  S
C643        N681   1.351       .  A
C643        C772   1.512       .  S
N644        N651   1.320       .  A
N644        N674   1.321       .  A
N645        N663   1.319       .  A
N645        N681   1.324       .  A
N646        C675   1.348       .  A
N646        N656   1.322       .  A
H647        C672   1.082       .  S
N648        N669   1.322       .  A
N649        N667   1.318       .  A
N649        N654   1.324       .  A
C650        N654   1.352       .  A
C650        C678   1.461       .  S
C650        C736   1.509       .  S
N651        C666   1.345       .  A
N651       Co990   2.089   1_565  S
C652        N680   1.344       .  A
C652        C655   1.465       .  S
C652        H686   1.081       .  S
C655        N676   1.352       .  A
C655        C724   1.513       .  S
N656        N662   1.320       .  A
N657        C683   1.340       .  A
N657        N659   1.319       .  A
N658        C672   1.340       .  A
N658      Co1908   2.082   1_465  S
N659        N687   1.323       .  A
N659       Co677   2.084       .  S
H660        C683   1.082       .  S
H661        C678   1.081       .  S
N662       Co959   2.084   1_554  S
N663      Co1311   2.095   1_565  S
N664        N676   1.324       .  A
N664        N680   1.319       .  A
C665        N669   1.350       .  A
C665        C679   1.463       .  S
C665        C760   1.507       .  S
C666        C685   1.463       .  S
C666        H670   1.081       .  S
N667        C678   1.342       .  A
N667      Co1945   2.084       .  S
C671        N687   1.350       .  A
C671        C683   1.462       .  S
C671        C688   1.505       .  S
Co673       N968   2.089   1_544  S
N674        C685   1.350       .  A
C675        C748   1.500       .  S
Co677      N1297   2.095   1_455  S
Co677      N1935   2.084   1_455  S
Co677     Cl1001   2.445   1_455  S
N680      Co1274   2.092   1_455  S
Cl684     Co1274   2.447   1_556  S
Cl684     Co2227   2.454       .  S
Cl684      Co994   2.445   1_655  S
C685        C700   1.507       .  S
C688        C689   1.537       .  S
C688        C694   1.539       .  S
C688        C692   1.531       .  S
C689        H696   1.086       .  S
C689        C690   1.368       .  D
C690        C691   1.539       .  S
C690        C928   1.487       .  S
C691        C695   1.538       .  S
C691        C693   1.539       .  S
C691        H697   1.110       .  S
C692        H698   1.086       .  S
C692        C693   1.363       .  D
C693        C939   1.473       .  S
C694        H699   1.085       .  S
C694        C695   1.367       .  D
C695        C911   1.491       .  S
C700        C701   1.536       .  S
C700        C706   1.544       .  S
C700        C704   1.532       .  S
C701        H708   1.086       .  S
C701        C702   1.356       .  D
C702        C703   1.537       .  S
C702        C886   1.474       .  S
C703        C707   1.545       .  S
C703        C705   1.536       .  S
C703        H709   1.105       .  S
C704        H710   1.086       .  S
C704        C705   1.363       .  D
C705        C942   1.476       .  S
C706        H711   1.085       .  S
C706        C707   1.378       .  D
C707        C900   1.506       .  S
C712        C713   1.540       .  S
C712        C718   1.536       .  S
C712        C716   1.535       .  S
C713        H720   1.086       .  S
C713        C714   1.368       .  D
C714        C715   1.538       .  S
C714        C872   1.489       .  S
C715        C719   1.534       .  S
C715        C717   1.542       .  S
C715        H721   1.111       .  S
C716        H722   1.086       .  S
C716        C717   1.365       .  D
C717        C855   1.482       .  S
C718        H723   1.086       .  S
C718        C719   1.362       .  D
C719        C883   1.472       .  S
C724        C725   1.539       .  S
C724        C730   1.539       .  S
C724        C728   1.536       .  S
C725        H732   1.085       .  S
C725        C726   1.369       .  D
C726        C727   1.540       .  S
C726        C914   1.487       .  S
C727        C731   1.535       .  S
C727        C729   1.538       .  S
C727        H733   1.108       .  S
C728        H734   1.086       .  S
C728        C729   1.366       .  D
C729        C858   1.481       .  S
C730        H735   1.086       .  S
C730        C731   1.365       .  D
C731        C841   1.482       .  S
C736        C737   1.541       .  S
C736        C742   1.537       .  S
C736        C740   1.533       .  S
C737        H744   1.083       .  S
C737        C738   1.370       .  D
C738        C739   1.540       .  S
C738        C813   1.491       .  S
C739        C743   1.537       .  S
C739        C741   1.539       .  S
C739        H745   1.111       .  S
C740        H746   1.086       .  S
C740        C741   1.364       .  D
C741        C830   1.478       .  S
C742        H747   1.086       .  S
C742        C743   1.364       .  D
C743        C925   1.485       .  S
C748        C749   1.535       .  S
C748        C754   1.538       .  S
C748        C752   1.529       .  S
C749        H756   1.085       .  S
C749        C750   1.364       .  D
C750        C751   1.540       .  S
C750        C844   1.481       .  S
C751        C755   1.543       .  S
C751        C753   1.543       .  S
C751        H757   1.110       .  S
C752        H758   1.086       .  S
C752        C753   1.362       .  D
C753        C799   1.474       .  S
C754        H759   1.086       .  S
C754        C755   1.367       .  D
C755        C816   1.494       .  S
C760        C761   1.539       .  S
C760        C766   1.538       .  S
C760        C764   1.535       .  S
C761        H768   1.086       .  S
C761        C762   1.361       .  D
C762        C763   1.533       .  S
C762        C785   1.478       .  S
C763        C767   1.541       .  S
C763        C765   1.536       .  S
C763        H769   1.110       .  S
C764        H770   1.086       .  S
C764        C765   1.365       .  D
C765        C802   1.474       .  S
C766        H771   1.086       .  S
C766        C767   1.369       .  D
C767        C869   1.490       .  S
C772        C773   1.543       .  S
C772        C778   1.533       .  S
C772        C776   1.538       .  S
C773        H780   1.084       .  S
C773        C774   1.372       .  D
C774        C775   1.546       .  S
C774        C897   1.505       .  S
C775        C779   1.542       .  S
C775        C777   1.535       .  S
C775        H781   1.109       .  S
C776        H782   1.086       .  S
C776        C777   1.367       .  D
C777        C827   1.478       .  S
C778        H783   1.086       .  S
C778        C779   1.360       .  D
C779        C788   1.480       .  S
C784        H791   1.085       .  S
C784        C785   1.400       .  A
C784        C789   1.399       .  A
C785        C786   1.418       .  A
C786        C787   1.402       .  A
C786        N793   1.439       .  S
C787        H792   1.084       .  S
C787        C788   1.402       .  A
C788        C789   1.415       .  A
C789        N790   1.437       .  S
N790        H794   1.046       .  S
N790        H795   1.042       .  S
N793        H796   1.042       .  S
N793        H797   1.046       .  S
C798        H805   1.081       .  S
C798        C799   1.396       .  A
C798        C803   1.399       .  A
C799        C800   1.416       .  A
C800        C801   1.403       .  A
C800        N807   1.437       .  S
C801        H806   1.084       .  S
C801        C802   1.401       .  A
C802        C803   1.407       .  A
C803        N804   1.435       .  S
N804        H808   1.046       .  S
N804        H809   1.044       .  S
N807        H810   1.041       .  S
N807        H811   1.046       .  S
C812        H819   1.084       .  S
C812        C813   1.404       .  A
C812        C817   1.404       .  A
C813        C814   1.418       .  A
C814        C815   1.401       .  A
C814        N821   1.432       .  S
C815        H820   1.084       .  S
C815        C816   1.406       .  A
C816        C817   1.410       .  A
C817        N818   1.428       .  S
N818        H822   1.046       .  S
N818        H823   1.046       .  S
N821        H824   1.045       .  S
N821        H825   1.042       .  S
C826        H833   1.084       .  S
C826        C827   1.401       .  A
C826        C831   1.405       .  A
C827        C828   1.410       .  A
C828        C829   1.409       .  A
C828        N835   1.437       .  S
C829        H834   1.084       .  S
C829        C830   1.403       .  A
C830        C831   1.407       .  A
C831        N832   1.437       .  S
N832        H836   1.046       .  S
N832        H837   1.046       .  S
N835        H838   1.045       .  S
N835        H839   1.046       .  S
C840        H847   1.084       .  S
C840        C841   1.402       .  A
C840        C845   1.396       .  A
C841        C842   1.415       .  A
C842        C843   1.399       .  A
C842        N849   1.432       .  S
C843        H848   1.084       .  S
C843        C844   1.402       .  A
C844        C845   1.416       .  A
C845        N846   1.431       .  S
N846        H850   1.043       .  S
N846        H851   1.042       .  S
N849        H852   1.045       .  S
N849        H853   1.042       .  S
C854        H861   1.080       .  S
C854        C855   1.400       .  A
C854        C859   1.397       .  A
C855        C856   1.412       .  A
C856        C857   1.409       .  A
C856        N863   1.437       .  S
C857        H862   1.084       .  S
C857        C858   1.403       .  A
C858        C859   1.412       .  A
C859        N860   1.432       .  S
N860        H864   1.045       .  S
N860        H865   1.043       .  S
N863        H866   1.045       .  S
N863        H867   1.046       .  S
C868        H875   1.083       .  S
C868        C869   1.405       .  A
C868        C873   1.407       .  A
C869        C870   1.412       .  A
C870        C871   1.404       .  A
C870        N877   1.436       .  S
C871        H876   1.078       .  S
C871        C872   1.401       .  A
C872        C873   1.413       .  A
C873        N874   1.438       .  S
N874        H878   1.046       .  S
N874        H879   1.046       .  S
N877        H880   1.044       .  S
N877        H881   1.046       .  S
C882        H889   1.084       .  S
C882        C883   1.402       .  A
C882        C887   1.405       .  A
C883        C884   1.415       .  A
C884        C885   1.399       .  A
C884        N891   1.438       .  S
C885        H890   1.082       .  S
C885        C886   1.399       .  A
C886        C887   1.407       .  A
C887        N888   1.437       .  S
N888        H892   1.046       .  S
N888        H893   1.045       .  S
N891        H894   1.042       .  S
N891        H895   1.045       .  S
C896        H903   1.079       .  S
C896        C897   1.402       .  A
C896        C901   1.401       .  A
C897        C898   1.416       .  A
C898        C899   1.412       .  A
C898        N905   1.437       .  S
C899        H904   1.083       .  S
C899        C900   1.409       .  A
C900        C901   1.416       .  A
C901        N902   1.430       .  S
N902        H906   1.046       .  S
N902        H907   1.046       .  S
N905        H908   1.046       .  S
N905        H909   1.046       .  S
C910        H917   1.080       .  S
C910        C911   1.404       .  A
C910        C915   1.404       .  A
C911        C912   1.414       .  A
C912        C913   1.406       .  A
C912        N919   1.438       .  S
C913        H918   1.083       .  S
C913        C914   1.404       .  A
C914        C915   1.408       .  A
C915        N916   1.432       .  S
N916        H920   1.046       .  S
N916        H921   1.046       .  S
N919        H922   1.046       .  S
N919        H923   1.046       .  S
C924        H931   1.082       .  S
C924        C925   1.401       .  A
C924        C929   1.404       .  A
C925        C926   1.413       .  A
C926        C927   1.404       .  A
C926        N933   1.438       .  S
C927        H932   1.083       .  S
C927        C928   1.404       .  A
C928        C929   1.412       .  A
C929        N930   1.436       .  S
N930        H934   1.046       .  S
N930        H935   1.044       .  S
N933        H936   1.045       .  S
N933        H937   1.046       .  S
C938        H945   1.082       .  S
C938        C939   1.397       .  A
C938        C943   1.392       .  A
C939        C940   1.417       .  A
C940        C941   1.404       .  A
C940        N947   1.438       .  S
C941        H946   1.084       .  S
C941        C942   1.402       .  A
C942        C943   1.410       .  A
C943        N944   1.429       .  S
N944        H948   1.043       .  S
N944        H949   1.045       .  S
N947        H950   1.043       .  S
N947        H951   1.045       .  S
C952        N970   1.351       .  A
C952        C989   1.462       .  S
C952       C1029   1.505       .  S
N953        N970   1.324       .  A
N953        N975   1.319       .  A
N953       Co990   2.083   1_565  S
C954        N979   1.340       .  A
C954        C992   1.461       .  S
C954        H999   1.082       .  S
H955        C996   1.082       .  S
C956        N980   1.343       .  A
C956        C960   1.466       .  S
C956        H985   1.082       .  S
Co957      N2243   2.082   1_545  S
Co957       N965   2.083   1_545  S
Co957      N1631   2.092       .  S
Co957     Cl1635   2.447       .  S
N958        C996   1.343       .  A
N958        N965   1.320       .  A
Co959       N966   2.086       .  S
Co959     Cl1952   2.454       .  S
C960        N998   1.351       .  A
C960       C1089   1.512       .  S
N961        N968   1.320       .  A
N961        N991   1.321       .  A
N962        N980   1.319       .  A
N962        N998   1.324       .  A
N963        C992   1.348       .  A
N963        N973   1.322       .  A
H964        C989   1.082       .  S
N965        N986   1.322       .  A
N966        N984   1.318       .  A
N966        N971   1.324       .  A
C967        N971   1.352       .  A
C967        C995   1.461       .  S
C967       C1053   1.509       .  S
N968        C983   1.345       .  A
C969        N997   1.344       .  A
C969        C972   1.465       .  S
C969       H1003   1.081       .  S
C972        N993   1.352       .  A
C972       C1041   1.513       .  S
N973        N979   1.320       .  A
N974       C1000   1.340       .  A
N974        N976   1.319       .  A
N975        C989   1.340       .  A
N975      Co2225   2.082   1_465  S
N976       N1004   1.323       .  A
N976       Co994   2.084       .  S
H977       C1000   1.082       .  S
H978        C995   1.081       .  S
N980      Co1628   2.095   1_565  S
N981        N993   1.324       .  A
N981        N997   1.319       .  A
C982        N986   1.350       .  A
C982        C996   1.463       .  S
C982       C1077   1.507       .  S
C983       C1002   1.463       .  S
C983        H987   1.081       .  S
N984        C995   1.342       .  A
N984      Co2262   2.084       .  S
C988       N1004   1.350       .  A
C988       C1000   1.462       .  S
C988       C1005   1.505       .  S
N991       C1002   1.350       .  A
C992       C1065   1.500       .  S
Co994      N1614   2.095   1_455  S
Co994      N2252   2.084   1_455  S
N997      Co1591   2.092   1_455  S
Cl1001    Co1591   2.447       .  S
Cl1001    Co1910   2.454       .  S
C1002      C1017   1.507       .  S
C1005      C1006   1.537       .  S
C1005      C1011   1.539       .  S
C1005      C1009   1.531       .  S
C1006      H1013   1.086       .  S
C1006      C1007   1.368       .  D
C1007      C1008   1.539       .  S
C1007      C1245   1.487       .  S
C1008      C1012   1.538       .  S
C1008      C1010   1.539       .  S
C1008      H1014   1.110       .  S
C1009      H1015   1.086       .  S
C1009      C1010   1.363       .  D
C1010      C1256   1.473       .  S
C1011      H1016   1.085       .  S
C1011      C1012   1.367       .  D
C1012      C1228   1.491       .  S
C1017      C1018   1.536       .  S
C1017      C1023   1.544       .  S
C1017      C1021   1.532       .  S
C1018      H1025   1.086       .  S
C1018      C1019   1.356       .  D
C1019      C1020   1.537       .  S
C1019      C1203   1.474       .  S
C1020      C1024   1.545       .  S
C1020      C1022   1.536       .  S
C1020      H1026   1.105       .  S
C1021      H1027   1.086       .  S
C1021      C1022   1.363       .  D
C1022      C1259   1.476       .  S
C1023      H1028   1.085       .  S
C1023      C1024   1.378       .  D
C1024      C1217   1.506       .  S
C1029      C1030   1.540       .  S
C1029      C1035   1.536       .  S
C1029      C1033   1.535       .  S
C1030      H1037   1.086       .  S
C1030      C1031   1.368       .  D
C1031      C1032   1.538       .  S
C1031      C1189   1.489       .  S
C1032      C1036   1.534       .  S
C1032      C1034   1.542       .  S
C1032      H1038   1.111       .  S
C1033      H1039   1.086       .  S
C1033      C1034   1.365       .  D
C1034      C1172   1.482       .  S
C1035      H1040   1.086       .  S
C1035      C1036   1.362       .  D
C1036      C1200   1.472       .  S
C1041      C1042   1.539       .  S
C1041      C1047   1.539       .  S
C1041      C1045   1.536       .  S
C1042      H1049   1.085       .  S
C1042      C1043   1.369       .  D
C1043      C1044   1.540       .  S
C1043      C1231   1.487       .  S
C1044      C1048   1.535       .  S
C1044      C1046   1.538       .  S
C1044      H1050   1.108       .  S
C1045      H1051   1.086       .  S
C1045      C1046   1.366       .  D
C1046      C1175   1.481       .  S
C1047      H1052   1.086       .  S
C1047      C1048   1.365       .  D
C1048      C1158   1.482       .  S
C1053      C1054   1.541       .  S
C1053      C1059   1.537       .  S
C1053      C1057   1.533       .  S
C1054      H1061   1.083       .  S
C1054      C1055   1.370       .  D
C1055      C1056   1.540       .  S
C1055      C1130   1.491       .  S
C1056      C1060   1.537       .  S
C1056      C1058   1.539       .  S
C1056      H1062   1.111       .  S
C1057      H1063   1.086       .  S
C1057      C1058   1.364       .  D
C1058      C1147   1.478       .  S
C1059      H1064   1.086       .  S
C1059      C1060   1.364       .  D
C1060      C1242   1.485       .  S
C1065      C1066   1.535       .  S
C1065      C1071   1.538       .  S
C1065      C1069   1.529       .  S
C1066      H1073   1.085       .  S
C1066      C1067   1.364       .  D
C1067      C1068   1.540       .  S
C1067      C1161   1.481       .  S
C1068      C1072   1.543       .  S
C1068      C1070   1.543       .  S
C1068      H1074   1.110       .  S
C1069      H1075   1.086       .  S
C1069      C1070   1.362       .  D
C1070      C1116   1.474       .  S
C1071      H1076   1.086       .  S
C1071      C1072   1.367       .  D
C1072      C1133   1.494       .  S
C1077      C1078   1.539       .  S
C1077      C1083   1.538       .  S
C1077      C1081   1.535       .  S
C1078      H1085   1.086       .  S
C1078      C1079   1.361       .  D
C1079      C1080   1.533       .  S
C1079      C1102   1.478       .  S
C1080      C1084   1.541       .  S
C1080      C1082   1.536       .  S
C1080      H1086   1.110       .  S
C1081      H1087   1.086       .  S
C1081      C1082   1.365       .  D
C1082      C1119   1.474       .  S
C1083      H1088   1.086       .  S
C1083      C1084   1.369       .  D
C1084      C1186   1.490       .  S
C1089      C1090   1.543       .  S
C1089      C1095   1.533       .  S
C1089      C1093   1.538       .  S
C1090      H1097   1.084       .  S
C1090      C1091   1.372       .  D
C1091      C1092   1.546       .  S
C1091      C1214   1.505       .  S
C1092      C1096   1.542       .  S
C1092      C1094   1.535       .  S
C1092      H1098   1.109       .  S
C1093      H1099   1.086       .  S
C1093      C1094   1.367       .  D
C1094      C1144   1.478       .  S
C1095      H1100   1.086       .  S
C1095      C1096   1.360       .  D
C1096      C1105   1.480       .  S
C1101      H1108   1.085       .  S
C1101      C1102   1.400       .  A
C1101      C1106   1.399       .  A
C1102      C1103   1.418       .  A
C1103      C1104   1.402       .  A
C1103      N1110   1.439       .  S
C1104      H1109   1.084       .  S
C1104      C1105   1.402       .  A
C1105      C1106   1.415       .  A
C1106      N1107   1.437       .  S
N1107      H1111   1.046       .  S
N1107      H1112   1.042       .  S
N1110      H1113   1.042       .  S
N1110      H1114   1.046       .  S
C1115      H1122   1.081       .  S
C1115      C1116   1.396       .  A
C1115      C1120   1.399       .  A
C1116      C1117   1.416       .  A
C1117      C1118   1.403       .  A
C1117      N1124   1.437       .  S
C1118      H1123   1.084       .  S
C1118      C1119   1.401       .  A
C1119      C1120   1.407       .  A
C1120      N1121   1.435       .  S
N1121      H1125   1.046       .  S
N1121      H1126   1.044       .  S
N1124      H1127   1.041       .  S
N1124      H1128   1.046       .  S
C1129      H1136   1.084       .  S
C1129      C1130   1.404       .  A
C1129      C1134   1.404       .  A
C1130      C1131   1.418       .  A
C1131      C1132   1.401       .  A
C1131      N1138   1.432       .  S
C1132      H1137   1.084       .  S
C1132      C1133   1.406       .  A
C1133      C1134   1.410       .  A
C1134      N1135   1.428       .  S
N1135      H1139   1.046       .  S
N1135      H1140   1.046       .  S
N1138      H1141   1.045       .  S
N1138      H1142   1.042       .  S
C1143      H1150   1.084       .  S
C1143      C1144   1.401       .  A
C1143      C1148   1.405       .  A
C1144      C1145   1.410       .  A
C1145      C1146   1.409       .  A
C1145      N1152   1.437       .  S
C1146      H1151   1.084       .  S
C1146      C1147   1.403       .  A
C1147      C1148   1.407       .  A
C1148      N1149   1.437       .  S
N1149      H1153   1.046       .  S
N1149      H1154   1.046       .  S
N1152      H1155   1.045       .  S
N1152      H1156   1.046       .  S
C1157      H1164   1.084       .  S
C1157      C1158   1.402       .  A
C1157      C1162   1.396       .  A
C1158      C1159   1.415       .  A
C1159      C1160   1.399       .  A
C1159      N1166   1.432       .  S
C1160      H1165   1.084       .  S
C1160      C1161   1.402       .  A
C1161      C1162   1.416       .  A
C1162      N1163   1.431       .  S
N1163      H1167   1.043       .  S
N1163      H1168   1.042       .  S
N1166      H1169   1.045       .  S
N1166      H1170   1.042       .  S
C1171      H1178   1.080       .  S
C1171      C1172   1.400       .  A
C1171      C1176   1.397       .  A
C1172      C1173   1.412       .  A
C1173      C1174   1.409       .  A
C1173      N1180   1.437       .  S
C1174      H1179   1.084       .  S
C1174      C1175   1.403       .  A
C1175      C1176   1.412       .  A
C1176      N1177   1.432       .  S
N1177      H1181   1.045       .  S
N1177      H1182   1.043       .  S
N1180      H1183   1.045       .  S
N1180      H1184   1.046       .  S
C1185      H1192   1.083       .  S
C1185      C1186   1.405       .  A
C1185      C1190   1.407       .  A
C1186      C1187   1.412       .  A
C1187      C1188   1.404       .  A
C1187      N1194   1.436       .  S
C1188      H1193   1.078       .  S
C1188      C1189   1.401       .  A
C1189      C1190   1.413       .  A
C1190      N1191   1.438       .  S
N1191      H1195   1.046       .  S
N1191      H1196   1.046       .  S
N1194      H1197   1.044       .  S
N1194      H1198   1.046       .  S
C1199      H1206   1.084       .  S
C1199      C1200   1.402       .  A
C1199      C1204   1.405       .  A
C1200      C1201   1.415       .  A
C1201      C1202   1.399       .  A
C1201      N1208   1.438       .  S
C1202      H1207   1.082       .  S
C1202      C1203   1.399       .  A
C1203      C1204   1.407       .  A
C1204      N1205   1.437       .  S
N1205      H1209   1.046       .  S
N1205      H1210   1.045       .  S
N1208      H1211   1.042       .  S
N1208      H1212   1.045       .  S
C1213      H1220   1.079       .  S
C1213      C1214   1.402       .  A
C1213      C1218   1.401       .  A
C1214      C1215   1.416       .  A
C1215      C1216   1.412       .  A
C1215      N1222   1.437       .  S
C1216      H1221   1.083       .  S
C1216      C1217   1.409       .  A
C1217      C1218   1.416       .  A
C1218      N1219   1.430       .  S
N1219      H1223   1.046       .  S
N1219      H1224   1.046       .  S
N1222      H1225   1.046       .  S
N1222      H1226   1.046       .  S
C1227      H1234   1.080       .  S
C1227      C1228   1.404       .  A
C1227      C1232   1.404       .  A
C1228      C1229   1.414       .  A
C1229      C1230   1.406       .  A
C1229      N1236   1.438       .  S
C1230      H1235   1.083       .  S
C1230      C1231   1.404       .  A
C1231      C1232   1.408       .  A
C1232      N1233   1.432       .  S
N1233      H1237   1.046       .  S
N1233      H1238   1.046       .  S
N1236      H1239   1.046       .  S
N1236      H1240   1.046       .  S
C1241      H1248   1.082       .  S
C1241      C1242   1.401       .  A
C1241      C1246   1.404       .  A
C1242      C1243   1.413       .  A
C1243      C1244   1.404       .  A
C1243      N1250   1.438       .  S
C1244      H1249   1.083       .  S
C1244      C1245   1.404       .  A
C1245      C1246   1.412       .  A
C1246      N1247   1.436       .  S
N1247      H1251   1.046       .  S
N1247      H1252   1.044       .  S
N1250      H1253   1.045       .  S
N1250      H1254   1.046       .  S
C1255      H1262   1.082       .  S
C1255      C1256   1.397       .  A
C1255      C1260   1.392       .  A
C1256      C1257   1.417       .  A
C1257      C1258   1.404       .  A
C1257      N1264   1.438       .  S
C1258      H1263   1.084       .  S
C1258      C1259   1.402       .  A
C1259      C1260   1.410       .  A
C1260      N1261   1.429       .  S
N1261      H1265   1.043       .  S
N1261      H1266   1.045       .  S
N1264      H1267   1.043       .  S
N1264      H1268   1.045       .  S
C1269      N1287   1.351       .  A
C1269      C1306   1.462       .  S
C1269      C1346   1.505       .  S
N1270      N1287   1.324       .  A
N1270      N1292   1.319       .  A
N1270     Co1307   2.083       .  S
C1271      N1296   1.340       .  A
C1271      C1309   1.461       .  S
C1271      H1316   1.082       .  S
H1272      C1313   1.082       .  S
C1273      N1297   1.343       .  A
C1273      C1277   1.466       .  S
C1273      H1302   1.082       .  S
Co1274     N1282   2.083       .  S
Co1274     N1924   2.076       .  S
N1275      C1313   1.343       .  A
N1275      N1282   1.320       .  A
N1275     Co2227   2.087   1_554  S
Co1276     N2226   2.087   1_545  S
Co1276     N1913   2.083   1_545  S
Co1276     N1613   2.084       .  S
Co1276     N1283   2.086       .  S
C1277      N1315   1.351       .  A
C1277      C1406   1.512       .  S
N1278      N1285   1.320       .  A
N1278      N1308   1.321       .  A
N1278     Co1945   2.079       .  S
N1279      N1297   1.319       .  A
N1279      N1315   1.324       .  A
N1279     Co1910   2.083       .  S
N1280      C1309   1.348       .  A
N1280      N1290   1.322       .  A
H1281      C1306   1.082       .  S
N1282      N1303   1.322       .  A
N1283      N1301   1.318       .  A
N1283      N1288   1.324       .  A
C1284      N1288   1.352       .  A
C1284      C1312   1.461       .  S
C1284      C1370   1.509       .  S
N1285      C1300   1.345       .  A
N1285     Co1624   2.089       .  S
C1286      N1314   1.344       .  A
C1286      C1289   1.465       .  S
C1286      H1320   1.081       .  S
C1289      N1310   1.352       .  A
C1289      C1358   1.513       .  S
N1290      N1296   1.320       .  A
N1290     Co1908   2.076       .  S
N1291      C1317   1.340       .  A
N1291      N1293   1.319       .  A
N1291     Co2258   2.082       .  S
N1292      C1306   1.340       .  A
N1293      N1321   1.323       .  A
N1293     Co1311   2.084       .  S
H1294      C1317   1.082       .  S
H1295      C1312   1.081       .  S
N1296     Co1593   2.084   1_554  S
N1298      N1310   1.324       .  A
N1298      N1314   1.319       .  A
N1298     Co1941   2.086       .  S
C1299      N1303   1.350       .  A
C1299      C1313   1.463       .  S
C1299      C1394   1.507       .  S
C1300      C1319   1.463       .  S
C1300      H1304   1.081       .  S
N1301      C1312   1.342       .  A
C1305      N1321   1.350       .  A
C1305      C1317   1.462       .  S
C1305      C1322   1.505       .  S
Co1307     N1602   2.089   1_554  S
Co1307     N2242   2.082   1_554  S
Co1307     N1932   2.086       .  S
Co1307    Cl1952   2.454   1_554  S
N1308      C1319   1.350       .  A
C1309      C1382   1.500       .  S
Co1311     N1912   2.079   1_545  S
Co1311    Cl1635   2.445       .  S
Cl1318    Co1941   2.454   1_556  S
Cl1318    Co1628   2.445       .  S
C1319      C1334   1.507       .  S
C1322      C1323   1.537       .  S
C1322      C1328   1.539       .  S
C1322      C1326   1.531       .  S
C1323      H1330   1.086       .  S
C1323      C1324   1.368       .  D
C1324      C1325   1.539       .  S
C1324      C1562   1.487       .  S
C1325      C1329   1.538       .  S
C1325      C1327   1.539       .  S
C1325      H1331   1.110       .  S
C1326      H1332   1.086       .  S
C1326      C1327   1.363       .  D
C1327      C1573   1.473       .  S
C1328      H1333   1.085       .  S
C1328      C1329   1.367       .  D
C1329      C1545   1.491       .  S
C1334      C1335   1.536       .  S
C1334      C1340   1.544       .  S
C1334      C1338   1.532       .  S
C1335      H1342   1.086       .  S
C1335      C1336   1.356       .  D
C1336      C1337   1.537       .  S
C1336      C1520   1.474       .  S
C1337      C1341   1.545       .  S
C1337      C1339   1.536       .  S
C1337      H1343   1.105       .  S
C1338      H1344   1.086       .  S
C1338      C1339   1.363       .  D
C1339      C1576   1.476       .  S
C1340      H1345   1.085       .  S
C1340      C1341   1.378       .  D
C1341      C1534   1.506       .  S
C1346      C1347   1.540       .  S
C1346      C1352   1.536       .  S
C1346      C1350   1.535       .  S
C1347      H1354   1.086       .  S
C1347      C1348   1.368       .  D
C1348      C1349   1.538       .  S
C1348      C1506   1.489       .  S
C1349      C1353   1.534       .  S
C1349      C1351   1.542       .  S
C1349      H1355   1.111       .  S
C1350      H1356   1.086       .  S
C1350      C1351   1.365       .  D
C1351      C1489   1.482       .  S
C1352      H1357   1.086       .  S
C1352      C1353   1.362       .  D
C1353      C1517   1.472       .  S
C1358      C1359   1.539       .  S
C1358      C1364   1.539       .  S
C1358      C1362   1.536       .  S
C1359      H1366   1.085       .  S
C1359      C1360   1.369       .  D
C1360      C1361   1.540       .  S
C1360      C1548   1.487       .  S
C1361      C1365   1.535       .  S
C1361      C1363   1.538       .  S
C1361      H1367   1.108       .  S
C1362      H1368   1.086       .  S
C1362      C1363   1.366       .  D
C1363      C1492   1.481       .  S
C1364      H1369   1.086       .  S
C1364      C1365   1.365       .  D
C1365      C1475   1.482       .  S
C1370      C1371   1.541       .  S
C1370      C1376   1.537       .  S
C1370      C1374   1.533       .  S
C1371      H1378   1.083       .  S
C1371      C1372   1.370       .  D
C1372      C1373   1.540       .  S
C1372      C1447   1.491       .  S
C1373      C1377   1.537       .  S
C1373      C1375   1.539       .  S
C1373      H1379   1.111       .  S
C1374      H1380   1.086       .  S
C1374      C1375   1.364       .  D
C1375      C1464   1.478       .  S
C1376      H1381   1.086       .  S
C1376      C1377   1.364       .  D
C1377      C1559   1.485       .  S
C1382      C1383   1.535       .  S
C1382      C1388   1.538       .  S
C1382      C1386   1.529       .  S
C1383      H1390   1.085       .  S
C1383      C1384   1.364       .  D
C1384      C1385   1.540       .  S
C1384      C1478   1.481       .  S
C1385      C1389   1.543       .  S
C1385      C1387   1.543       .  S
C1385      H1391   1.110       .  S
C1386      H1392   1.086       .  S
C1386      C1387   1.362       .  D
C1387      C1433   1.474       .  S
C1388      H1393   1.086       .  S
C1388      C1389   1.367       .  D
C1389      C1450   1.494       .  S
C1394      C1395   1.539       .  S
C1394      C1400   1.538       .  S
C1394      C1398   1.535       .  S
C1395      H1402   1.086       .  S
C1395      C1396   1.361       .  D
C1396      C1397   1.533       .  S
C1396      C1419   1.478       .  S
C1397      C1401   1.541       .  S
C1397      C1399   1.536       .  S
C1397      H1403   1.110       .  S
C1398      H1404   1.086       .  S
C1398      C1399   1.365       .  D
C1399      C1436   1.474       .  S
C1400      H1405   1.086       .  S
C1400      C1401   1.369       .  D
C1401      C1503   1.490       .  S
C1406      C1407   1.543       .  S
C1406      C1412   1.533       .  S
C1406      C1410   1.538       .  S
C1407      H1414   1.084       .  S
C1407      C1408   1.372       .  D
C1408      C1409   1.546       .  S
C1408      C1531   1.505       .  S
C1409      C1413   1.542       .  S
C1409      C1411   1.535       .  S
C1409      H1415   1.109       .  S
C1410      H1416   1.086       .  S
C1410      C1411   1.367       .  D
C1411      C1461   1.478       .  S
C1412      H1417   1.086       .  S
C1412      C1413   1.360       .  D
C1413      C1422   1.480       .  S
C1418      H1425   1.085       .  S
C1418      C1419   1.400       .  A
C1418      C1423   1.399       .  A
C1419      C1420   1.418       .  A
C1420      C1421   1.402       .  A
C1420      N1427   1.439       .  S
C1421      H1426   1.084       .  S
C1421      C1422   1.402       .  A
C1422      C1423   1.415       .  A
C1423      N1424   1.437       .  S
N1424      H1428   1.046       .  S
N1424      H1429   1.042       .  S
N1427      H1430   1.042       .  S
N1427      H1431   1.046       .  S
C1432      H1439   1.081       .  S
C1432      C1433   1.396       .  A
C1432      C1437   1.399       .  A
C1433      C1434   1.416       .  A
C1434      C1435   1.403       .  A
C1434      N1441   1.437       .  S
C1435      H1440   1.084       .  S
C1435      C1436   1.401       .  A
C1436      C1437   1.407       .  A
C1437      N1438   1.435       .  S
N1438      H1442   1.046       .  S
N1438      H1443   1.044       .  S
N1441      H1444   1.041       .  S
N1441      H1445   1.046       .  S
C1446      H1453   1.084       .  S
C1446      C1447   1.404       .  A
C1446      C1451   1.404       .  A
C1447      C1448   1.418       .  A
C1448      C1449   1.401       .  A
C1448      N1455   1.432       .  S
C1449      H1454   1.084       .  S
C1449      C1450   1.406       .  A
C1450      C1451   1.410       .  A
C1451      N1452   1.428       .  S
N1452      H1456   1.046       .  S
N1452      H1457   1.046       .  S
N1455      H1458   1.045       .  S
N1455      H1459   1.042       .  S
C1460      H1467   1.084       .  S
C1460      C1461   1.401       .  A
C1460      C1465   1.405       .  A
C1461      C1462   1.410       .  A
C1462      C1463   1.409       .  A
C1462      N1469   1.437       .  S
C1463      H1468   1.084       .  S
C1463      C1464   1.403       .  A
C1464      C1465   1.407       .  A
C1465      N1466   1.437       .  S
N1466      H1470   1.046       .  S
N1466      H1471   1.046       .  S
N1469      H1472   1.045       .  S
N1469      H1473   1.046       .  S
C1474      H1481   1.084       .  S
C1474      C1475   1.402       .  A
C1474      C1479   1.396       .  A
C1475      C1476   1.415       .  A
C1476      C1477   1.399       .  A
C1476      N1483   1.432       .  S
C1477      H1482   1.084       .  S
C1477      C1478   1.402       .  A
C1478      C1479   1.416       .  A
C1479      N1480   1.431       .  S
N1480      H1484   1.043       .  S
N1480      H1485   1.042       .  S
N1483      H1486   1.045       .  S
N1483      H1487   1.042       .  S
C1488      H1495   1.080       .  S
C1488      C1489   1.400       .  A
C1488      C1493   1.397       .  A
C1489      C1490   1.412       .  A
C1490      C1491   1.409       .  A
C1490      N1497   1.437       .  S
C1491      H1496   1.084       .  S
C1491      C1492   1.403       .  A
C1492      C1493   1.412       .  A
C1493      N1494   1.432       .  S
N1494      H1498   1.045       .  S
N1494      H1499   1.043       .  S
N1497      H1500   1.045       .  S
N1497      H1501   1.046       .  S
C1502      H1509   1.083       .  S
C1502      C1503   1.405       .  A
C1502      C1507   1.407       .  A
C1503      C1504   1.412       .  A
C1504      C1505   1.404       .  A
C1504      N1511   1.436       .  S
C1505      H1510   1.078       .  S
C1505      C1506   1.401       .  A
C1506      C1507   1.413       .  A
C1507      N1508   1.438       .  S
N1508      H1512   1.046       .  S
N1508      H1513   1.046       .  S
N1511      H1514   1.044       .  S
N1511      H1515   1.046       .  S
C1516      H1523   1.084       .  S
C1516      C1517   1.402       .  A
C1516      C1521   1.405       .  A
C1517      C1518   1.415       .  A
C1518      C1519   1.399       .  A
C1518      N1525   1.438       .  S
C1519      H1524   1.082       .  S
C1519      C1520   1.399       .  A
C1520      C1521   1.407       .  A
C1521      N1522   1.437       .  S
N1522      H1526   1.046       .  S
N1522      H1527   1.045       .  S
N1525      H1528   1.042       .  S
N1525      H1529   1.045       .  S
C1530      H1537   1.079       .  S
C1530      C1531   1.402       .  A
C1530      C1535   1.401       .  A
C1531      C1532   1.416       .  A
C1532      C1533   1.412       .  A
C1532      N1539   1.437       .  S
C1533      H1538   1.083       .  S
C1533      C1534   1.409       .  A
C1534      C1535   1.416       .  A
C1535      N1536   1.430       .  S
N1536      H1540   1.046       .  S
N1536      H1541   1.046       .  S
N1539      H1542   1.046       .  S
N1539      H1543   1.046       .  S
C1544      H1551   1.080       .  S
C1544      C1545   1.404       .  A
C1544      C1549   1.404       .  A
C1545      C1546   1.414       .  A
C1546      C1547   1.406       .  A
C1546      N1553   1.438       .  S
C1547      H1552   1.083       .  S
C1547      C1548   1.404       .  A
C1548      C1549   1.408       .  A
C1549      N1550   1.432       .  S
N1550      H1554   1.046       .  S
N1550      H1555   1.046       .  S
N1553      H1556   1.046       .  S
N1553      H1557   1.046       .  S
C1558      H1565   1.082       .  S
C1558      C1559   1.401       .  A
C1558      C1563   1.404       .  A
C1559      C1560   1.413       .  A
C1560      C1561   1.404       .  A
C1560      N1567   1.438       .  S
C1561      H1566   1.083       .  S
C1561      C1562   1.404       .  A
C1562      C1563   1.412       .  A
C1563      N1564   1.436       .  S
N1564      H1568   1.046       .  S
N1564      H1569   1.044       .  S
N1567      H1570   1.045       .  S
N1567      H1571   1.046       .  S
C1572      H1579   1.082       .  S
C1572      C1573   1.397       .  A
C1572      C1577   1.392       .  A
C1573      C1574   1.417       .  A
C1574      C1575   1.404       .  A
C1574      N1581   1.438       .  S
C1575      H1580   1.084       .  S
C1575      C1576   1.402       .  A
C1576      C1577   1.410       .  A
C1577      N1578   1.429       .  S
N1578      H1582   1.043       .  S
N1578      H1583   1.045       .  S
N1581      H1584   1.043       .  S
N1581      H1585   1.045       .  S
C1586      N1604   1.351       .  A
C1586      C1623   1.462       .  S
C1586      C1663   1.505       .  S
N1587      N1604   1.324       .  A
N1587      N1609   1.319       .  A
N1587     Co1624   2.083       .  S
C1588      N1613   1.340       .  A
C1588      C1626   1.461       .  S
C1588      H1633   1.082       .  S
H1589      C1630   1.082       .  S
C1590      N1614   1.343       .  A
C1590      C1594   1.466       .  S
C1590      H1619   1.082       .  S
Co1591     N1599   2.083       .  S
Co1591     N2241   2.076       .  S
N1592      C1630   1.343       .  A
N1592      N1599   1.320       .  A
N1592     Co1910   2.087       .  S
Co1593     N1909   2.087   1_546  S
Co1593     N2230   2.083   1_545  S
Co1593     N1600   2.086       .  S
C1594      N1632   1.351       .  A
C1594      C1723   1.512       .  S
N1595      N1602   1.320       .  A
N1595      N1625   1.321       .  A
N1595     Co2262   2.079       .  S
N1596      N1614   1.319       .  A
N1596      N1632   1.324       .  A
N1596     Co2227   2.083       .  S
N1597      C1626   1.348       .  A
N1597      N1607   1.322       .  A
H1598      C1623   1.082       .  S
N1599      N1620   1.322       .  A
N1600      N1618   1.318       .  A
N1600      N1605   1.324       .  A
C1601      N1605   1.352       .  A
C1601      C1629   1.461       .  S
C1601      C1687   1.509       .  S
N1602      C1617   1.345       .  A
C1603      N1631   1.344       .  A
C1603      C1606   1.465       .  S
C1603      H1637   1.081       .  S
C1606      N1627   1.352       .  A
C1606      C1675   1.513       .  S
N1607      N1613   1.320       .  A
N1607     Co2225   2.076       .  S
N1608      C1634   1.340       .  A
N1608      N1610   1.319       .  A
N1608     Co1941   2.082   1_556  S
N1609      C1623   1.340       .  A
N1610      N1638   1.323       .  A
N1610     Co1628   2.084       .  S
H1611      C1634   1.082       .  S
H1612      C1629   1.081       .  S
N1615      N1627   1.324       .  A
N1615      N1631   1.319       .  A
N1615     Co2258   2.086       .  S
C1616      N1620   1.350       .  A
C1616      C1630   1.463       .  S
C1616      C1711   1.507       .  S
C1617      C1636   1.463       .  S
C1617      H1621   1.081       .  S
N1618      C1629   1.342       .  A
C1622      N1638   1.350       .  A
C1622      C1634   1.462       .  S
C1622      C1639   1.505       .  S
Co1624     N1925   2.082       .  S
Co1624     N2249   2.086       .  S
Co1624    Cl2269   2.454       .  S
N1625      C1636   1.350       .  A
C1626      C1699   1.500       .  S
Co1628     N2229   2.079   1_545  S
Cl1635    Co2258   2.454       .  S
C1636      C1651   1.507       .  S
C1639      C1640   1.537       .  S
C1639      C1645   1.539       .  S
C1639      C1643   1.531       .  S
C1640      H1647   1.086       .  S
C1640      C1641   1.368       .  D
C1641      C1642   1.539       .  S
C1641      C1879   1.487       .  S
C1642      C1646   1.538       .  S
C1642      C1644   1.539       .  S
C1642      H1648   1.110       .  S
C1643      H1649   1.086       .  S
C1643      C1644   1.363       .  D
C1644      C1890   1.473       .  S
C1645      H1650   1.085       .  S
C1645      C1646   1.367       .  D
C1646      C1862   1.491       .  S
C1651      C1652   1.536       .  S
C1651      C1657   1.544       .  S
C1651      C1655   1.532       .  S
C1652      H1659   1.086       .  S
C1652      C1653   1.356       .  D
C1653      C1654   1.537       .  S
C1653      C1837   1.474       .  S
C1654      C1658   1.545       .  S
C1654      C1656   1.536       .  S
C1654      H1660   1.105       .  S
C1655      H1661   1.086       .  S
C1655      C1656   1.363       .  D
C1656      C1893   1.476       .  S
C1657      H1662   1.085       .  S
C1657      C1658   1.378       .  D
C1658      C1851   1.506       .  S
C1663      C1664   1.540       .  S
C1663      C1669   1.536       .  S
C1663      C1667   1.535       .  S
C1664      H1671   1.086       .  S
C1664      C1665   1.368       .  D
C1665      C1666   1.538       .  S
C1665      C1823   1.489       .  S
C1666      C1670   1.534       .  S
C1666      C1668   1.542       .  S
C1666      H1672   1.111       .  S
C1667      H1673   1.086       .  S
C1667      C1668   1.365       .  D
C1668      C1806   1.482       .  S
C1669      H1674   1.086       .  S
C1669      C1670   1.362       .  D
C1670      C1834   1.472       .  S
C1675      C1676   1.539       .  S
C1675      C1681   1.539       .  S
C1675      C1679   1.536       .  S
C1676      H1683   1.085       .  S
C1676      C1677   1.369       .  D
C1677      C1678   1.540       .  S
C1677      C1865   1.487       .  S
C1678      C1682   1.535       .  S
C1678      C1680   1.538       .  S
C1678      H1684   1.108       .  S
C1679      H1685   1.086       .  S
C1679      C1680   1.366       .  D
C1680      C1809   1.481       .  S
C1681      H1686   1.086       .  S
C1681      C1682   1.365       .  D
C1682      C1792   1.482       .  S
C1687      C1688   1.541       .  S
C1687      C1693   1.537       .  S
C1687      C1691   1.533       .  S
C1688      H1695   1.083       .  S
C1688      C1689   1.370       .  D
C1689      C1690   1.540       .  S
C1689      C1764   1.491       .  S
C1690      C1694   1.537       .  S
C1690      C1692   1.539       .  S
C1690      H1696   1.111       .  S
C1691      H1697   1.086       .  S
C1691      C1692   1.364       .  D
C1692      C1781   1.478       .  S
C1693      H1698   1.086       .  S
C1693      C1694   1.364       .  D
C1694      C1876   1.485       .  S
C1699      C1700   1.535       .  S
C1699      C1705   1.538       .  S
C1699      C1703   1.529       .  S
C1700      H1707   1.085       .  S
C1700      C1701   1.364       .  D
C1701      C1702   1.540       .  S
C1701      C1795   1.481       .  S
C1702      C1706   1.543       .  S
C1702      C1704   1.543       .  S
C1702      H1708   1.110       .  S
C1703      H1709   1.086       .  S
C1703      C1704   1.362       .  D
C1704      C1750   1.474       .  S
C1705      H1710   1.086       .  S
C1705      C1706   1.367       .  D
C1706      C1767   1.494       .  S
C1711      C1712   1.539       .  S
C1711      C1717   1.538       .  S
C1711      C1715   1.535       .  S
C1712      H1719   1.086       .  S
C1712      C1713   1.361       .  D
C1713      C1714   1.533       .  S
C1713      C1736   1.478       .  S
C1714      C1718   1.541       .  S
C1714      C1716   1.536       .  S
C1714      H1720   1.110       .  S
C1715      H1721   1.086       .  S
C1715      C1716   1.365       .  D
C1716      C1753   1.474       .  S
C1717      H1722   1.086       .  S
C1717      C1718   1.369       .  D
C1718      C1820   1.490       .  S
C1723      C1724   1.543       .  S
C1723      C1729   1.533       .  S
C1723      C1727   1.538       .  S
C1724      H1731   1.084       .  S
C1724      C1725   1.372       .  D
C1725      C1726   1.546       .  S
C1725      C1848   1.505       .  S
C1726      C1730   1.542       .  S
C1726      C1728   1.535       .  S
C1726      H1732   1.109       .  S
C1727      H1733   1.086       .  S
C1727      C1728   1.367       .  D
C1728      C1778   1.478       .  S
C1729      H1734   1.086       .  S
C1729      C1730   1.360       .  D
C1730      C1739   1.480       .  S
C1735      H1742   1.085       .  S
C1735      C1736   1.400       .  A
C1735      C1740   1.399       .  A
C1736      C1737   1.418       .  A
C1737      C1738   1.402       .  A
C1737      N1744   1.439       .  S
C1738      H1743   1.084       .  S
C1738      C1739   1.402       .  A
C1739      C1740   1.415       .  A
C1740      N1741   1.437       .  S
N1741      H1745   1.046       .  S
N1741      H1746   1.042       .  S
N1744      H1747   1.042       .  S
N1744      H1748   1.046       .  S
C1749      H1756   1.081       .  S
C1749      C1750   1.396       .  A
C1749      C1754   1.399       .  A
C1750      C1751   1.416       .  A
C1751      C1752   1.403       .  A
C1751      N1758   1.437       .  S
C1752      H1757   1.084       .  S
C1752      C1753   1.401       .  A
C1753      C1754   1.407       .  A
C1754      N1755   1.435       .  S
N1755      H1759   1.046       .  S
N1755      H1760   1.044       .  S
N1758      H1761   1.041       .  S
N1758      H1762   1.046       .  S
C1763      H1770   1.084       .  S
C1763      C1764   1.404       .  A
C1763      C1768   1.404       .  A
C1764      C1765   1.418       .  A
C1765      C1766   1.401       .  A
C1765      N1772   1.432       .  S
C1766      H1771   1.084       .  S
C1766      C1767   1.406       .  A
C1767      C1768   1.410       .  A
C1768      N1769   1.428       .  S
N1769      H1773   1.046       .  S
N1769      H1774   1.046       .  S
N1772      H1775   1.045       .  S
N1772      H1776   1.042       .  S
C1777      H1784   1.084       .  S
C1777      C1778   1.401       .  A
C1777      C1782   1.405       .  A
C1778      C1779   1.410       .  A
C1779      C1780   1.409       .  A
C1779      N1786   1.437       .  S
C1780      H1785   1.084       .  S
C1780      C1781   1.403       .  A
C1781      C1782   1.407       .  A
C1782      N1783   1.437       .  S
N1783      H1787   1.046       .  S
N1783      H1788   1.046       .  S
N1786      H1789   1.045       .  S
N1786      H1790   1.046       .  S
C1791      H1798   1.084       .  S
C1791      C1792   1.402       .  A
C1791      C1796   1.396       .  A
C1792      C1793   1.415       .  A
C1793      C1794   1.399       .  A
C1793      N1800   1.432       .  S
C1794      H1799   1.084       .  S
C1794      C1795   1.402       .  A
C1795      C1796   1.416       .  A
C1796      N1797   1.431       .  S
N1797      H1801   1.043       .  S
N1797      H1802   1.042       .  S
N1800      H1803   1.045       .  S
N1800      H1804   1.042       .  S
C1805      H1812   1.080       .  S
C1805      C1806   1.400       .  A
C1805      C1810   1.397       .  A
C1806      C1807   1.412       .  A
C1807      C1808   1.409       .  A
C1807      N1814   1.437       .  S
C1808      H1813   1.084       .  S
C1808      C1809   1.403       .  A
C1809      C1810   1.412       .  A
C1810      N1811   1.432       .  S
N1811      H1815   1.045       .  S
N1811      H1816   1.043       .  S
N1814      H1817   1.045       .  S
N1814      H1818   1.046       .  S
C1819      H1826   1.083       .  S
C1819      C1820   1.405       .  A
C1819      C1824   1.407       .  A
C1820      C1821   1.412       .  A
C1821      C1822   1.404       .  A
C1821      N1828   1.436       .  S
C1822      H1827   1.078       .  S
C1822      C1823   1.401       .  A
C1823      C1824   1.413       .  A
C1824      N1825   1.438       .  S
N1825      H1829   1.046       .  S
N1825      H1830   1.046       .  S
N1828      H1831   1.044       .  S
N1828      H1832   1.046       .  S
C1833      H1840   1.084       .  S
C1833      C1834   1.402       .  A
C1833      C1838   1.405       .  A
C1834      C1835   1.415       .  A
C1835      C1836   1.399       .  A
C1835      N1842   1.438       .  S
C1836      H1841   1.082       .  S
C1836      C1837   1.399       .  A
C1837      C1838   1.407       .  A
C1838      N1839   1.437       .  S
N1839      H1843   1.046       .  S
N1839      H1844   1.045       .  S
N1842      H1845   1.042       .  S
N1842      H1846   1.045       .  S
C1847      H1854   1.079       .  S
C1847      C1848   1.402       .  A
C1847      C1852   1.401       .  A
C1848      C1849   1.416       .  A
C1849      C1850   1.412       .  A
C1849      N1856   1.437       .  S
C1850      H1855   1.083       .  S
C1850      C1851   1.409       .  A
C1851      C1852   1.416       .  A
C1852      N1853   1.430       .  S
N1853      H1857   1.046       .  S
N1853      H1858   1.046       .  S
N1856      H1859   1.046       .  S
N1856      H1860   1.046       .  S
C1861      H1868   1.080       .  S
C1861      C1862   1.404       .  A
C1861      C1866   1.404       .  A
C1862      C1863   1.414       .  A
C1863      C1864   1.406       .  A
C1863      N1870   1.438       .  S
C1864      H1869   1.083       .  S
C1864      C1865   1.404       .  A
C1865      C1866   1.408       .  A
C1866      N1867   1.432       .  S
N1867      H1871   1.046       .  S
N1867      H1872   1.046       .  S
N1870      H1873   1.046       .  S
N1870      H1874   1.046       .  S
C1875      H1882   1.082       .  S
C1875      C1876   1.401       .  A
C1875      C1880   1.404       .  A
C1876      C1877   1.413       .  A
C1877      C1878   1.404       .  A
C1877      N1884   1.438       .  S
C1878      H1883   1.083       .  S
C1878      C1879   1.404       .  A
C1879      C1880   1.412       .  A
C1880      N1881   1.436       .  S
N1881      H1885   1.046       .  S
N1881      H1886   1.044       .  S
N1884      H1887   1.045       .  S
N1884      H1888   1.046       .  S
C1889      H1896   1.082       .  S
C1889      C1890   1.397       .  A
C1889      C1894   1.392       .  A
C1890      C1891   1.417       .  A
C1891      C1892   1.404       .  A
C1891      N1898   1.438       .  S
C1892      H1897   1.084       .  S
C1892      C1893   1.402       .  A
C1893      C1894   1.410       .  A
C1894      N1895   1.429       .  S
N1895      H1899   1.043       .  S
N1895      H1900   1.045       .  S
N1898      H1901   1.043       .  S
N1898      H1902   1.045       .  S
C1903      N1921   1.351       .  A
C1903      C1940   1.462       .  S
C1903      C1980   1.505       .  S
N1904      N1921   1.324       .  A
N1904      N1926   1.319       .  A
N1904     Co1941   2.083   1_565  S
C1905      N1930   1.340       .  A
C1905      C1943   1.461       .  S
C1905      H1950   1.082       .  S
H1906      C1947   1.082       .  S
C1907      N1931   1.343       .  A
C1907      C1911   1.466       .  S
C1907      H1936   1.082       .  S
Co1908     N1916   2.083   1_545  S
N1909      C1947   1.343       .  A
N1909      N1916   1.320       .  A
Co1910     N2247   2.084       .  S
Co1910     N1917   2.086       .  S
C1911      N1949   1.351       .  A
C1911      C2040   1.512       .  S
N1912      N1919   1.320       .  A
N1912      N1942   1.321       .  A
N1913      N1931   1.319       .  A
N1913      N1949   1.324       .  A
N1914      C1943   1.348       .  A
N1914      N1924   1.322       .  A
H1915      C1940   1.082       .  S
N1916      N1937   1.322       .  A
N1917      N1935   1.318       .  A
N1917      N1922   1.324       .  A
C1918      N1922   1.352       .  A
C1918      C1946   1.461       .  S
C1918      C2004   1.509       .  S
N1919      C1934   1.345       .  A
N1919     Co2258   2.089   1_565  S
C1920      N1948   1.344       .  A
C1920      C1923   1.465       .  S
C1920      H1954   1.081       .  S
C1923      N1944   1.352       .  A
C1923      C1992   1.513       .  S
N1924      N1930   1.320       .  A
N1925      C1951   1.340       .  A
N1925      N1927   1.319       .  A
N1926      C1940   1.340       .  A
N1927      N1955   1.323       .  A
N1927     Co1945   2.084       .  S
H1928      C1951   1.082       .  S
H1929      C1946   1.081       .  S
N1930     Co2227   2.084   1_554  S
N1932      N1944   1.324       .  A
N1932      N1948   1.319       .  A
C1933      N1937   1.350       .  A
C1933      C1947   1.463       .  S
C1933      C2028   1.507       .  S
C1934      C1953   1.463       .  S
C1934      H1938   1.081       .  S
N1935      C1946   1.342       .  A
C1939      N1955   1.350       .  A
C1939      C1951   1.462       .  S
C1939      C1956   1.505       .  S
Co1941     N2236   2.089   1_544  S
N1942      C1953   1.350       .  A
C1943      C2016   1.500       .  S
Co1945    Cl2269   2.445       .  S
Cl1952    Co2262   2.445       .  S
C1953      C1968   1.507       .  S
C1956      C1957   1.537       .  S
C1956      C1962   1.539       .  S
C1956      C1960   1.531       .  S
C1957      H1964   1.086       .  S
C1957      C1958   1.368       .  D
C1958      C1959   1.539       .  S
C1958      C2196   1.487       .  S
C1959      C1963   1.538       .  S
C1959      C1961   1.539       .  S
C1959      H1965   1.110       .  S
C1960      H1966   1.086       .  S
C1960      C1961   1.363       .  D
C1961      C2207   1.473       .  S
C1962      H1967   1.085       .  S
C1962      C1963   1.367       .  D
C1963      C2179   1.491       .  S
C1968      C1969   1.536       .  S
C1968      C1974   1.544       .  S
C1968      C1972   1.532       .  S
C1969      H1976   1.086       .  S
C1969      C1970   1.356       .  D
C1970      C1971   1.537       .  S
C1970      C2154   1.474       .  S
C1971      C1975   1.545       .  S
C1971      C1973   1.536       .  S
C1971      H1977   1.105       .  S
C1972      H1978   1.086       .  S
C1972      C1973   1.363       .  D
C1973      C2210   1.476       .  S
C1974      H1979   1.085       .  S
C1974      C1975   1.378       .  D
C1975      C2168   1.506       .  S
C1980      C1981   1.540       .  S
C1980      C1986   1.536       .  S
C1980      C1984   1.535       .  S
C1981      H1988   1.086       .  S
C1981      C1982   1.368       .  D
C1982      C1983   1.538       .  S
C1982      C2140   1.489       .  S
C1983      C1987   1.534       .  S
C1983      C1985   1.542       .  S
C1983      H1989   1.111       .  S
C1984      H1990   1.086       .  S
C1984      C1985   1.365       .  D
C1985      C2123   1.482       .  S
C1986      H1991   1.086       .  S
C1986      C1987   1.362       .  D
C1987      C2151   1.472       .  S
C1992      C1993   1.539       .  S
C1992      C1998   1.539       .  S
C1992      C1996   1.536       .  S
C1993      H2000   1.085       .  S
C1993      C1994   1.369       .  D
C1994      C1995   1.540       .  S
C1994      C2182   1.487       .  S
C1995      C1999   1.535       .  S
C1995      C1997   1.538       .  S
C1995      H2001   1.108       .  S
C1996      H2002   1.086       .  S
C1996      C1997   1.366       .  D
C1997      C2126   1.481       .  S
C1998      H2003   1.086       .  S
C1998      C1999   1.365       .  D
C1999      C2109   1.482       .  S
C2004      C2005   1.541       .  S
C2004      C2010   1.537       .  S
C2004      C2008   1.533       .  S
C2005      H2012   1.083       .  S
C2005      C2006   1.370       .  D
C2006      C2007   1.540       .  S
C2006      C2081   1.491       .  S
C2007      C2011   1.537       .  S
C2007      C2009   1.539       .  S
C2007      H2013   1.111       .  S
C2008      H2014   1.086       .  S
C2008      C2009   1.364       .  D
C2009      C2098   1.478       .  S
C2010      H2015   1.086       .  S
C2010      C2011   1.364       .  D
C2011      C2193   1.485       .  S
C2016      C2017   1.535       .  S
C2016      C2022   1.538       .  S
C2016      C2020   1.529       .  S
C2017      H2024   1.085       .  S
C2017      C2018   1.364       .  D
C2018      C2019   1.540       .  S
C2018      C2112   1.481       .  S
C2019      C2023   1.543       .  S
C2019      C2021   1.543       .  S
C2019      H2025   1.110       .  S
C2020      H2026   1.086       .  S
C2020      C2021   1.362       .  D
C2021      C2067   1.474       .  S
C2022      H2027   1.086       .  S
C2022      C2023   1.367       .  D
C2023      C2084   1.494       .  S
C2028      C2029   1.539       .  S
C2028      C2034   1.538       .  S
C2028      C2032   1.535       .  S
C2029      H2036   1.086       .  S
C2029      C2030   1.361       .  D
C2030      C2031   1.533       .  S
C2030      C2053   1.478       .  S
C2031      C2035   1.541       .  S
C2031      C2033   1.536       .  S
C2031      H2037   1.110       .  S
C2032      H2038   1.086       .  S
C2032      C2033   1.365       .  D
C2033      C2070   1.474       .  S
C2034      H2039   1.086       .  S
C2034      C2035   1.369       .  D
C2035      C2137   1.490       .  S
C2040      C2041   1.543       .  S
C2040      C2046   1.533       .  S
C2040      C2044   1.538       .  S
C2041      H2048   1.084       .  S
C2041      C2042   1.372       .  D
C2042      C2043   1.546       .  S
C2042      C2165   1.505       .  S
C2043      C2047   1.542       .  S
C2043      C2045   1.535       .  S
C2043      H2049   1.109       .  S
C2044      H2050   1.086       .  S
C2044      C2045   1.367       .  D
C2045      C2095   1.478       .  S
C2046      H2051   1.086       .  S
C2046      C2047   1.360       .  D
C2047      C2056   1.480       .  S
C2052      H2059   1.085       .  S
C2052      C2053   1.400       .  A
C2052      C2057   1.399       .  A
C2053      C2054   1.418       .  A
C2054      C2055   1.402       .  A
C2054      N2061   1.439       .  S
C2055      H2060   1.084       .  S
C2055      C2056   1.402       .  A
C2056      C2057   1.415       .  A
C2057      N2058   1.437       .  S
N2058      H2062   1.046       .  S
N2058      H2063   1.042       .  S
N2061      H2064   1.042       .  S
N2061      H2065   1.046       .  S
C2066      H2073   1.081       .  S
C2066      C2067   1.396       .  A
C2066      C2071   1.399       .  A
C2067      C2068   1.416       .  A
C2068      C2069   1.403       .  A
C2068      N2075   1.437       .  S
C2069      H2074   1.084       .  S
C2069      C2070   1.401       .  A
C2070      C2071   1.407       .  A
C2071      N2072   1.435       .  S
N2072      H2076   1.046       .  S
N2072      H2077   1.044       .  S
N2075      H2078   1.041       .  S
N2075      H2079   1.046       .  S
C2080      H2087   1.084       .  S
C2080      C2081   1.404       .  A
C2080      C2085   1.404       .  A
C2081      C2082   1.418       .  A
C2082      C2083   1.401       .  A
C2082      N2089   1.432       .  S
C2083      H2088   1.084       .  S
C2083      C2084   1.406       .  A
C2084      C2085   1.410       .  A
C2085      N2086   1.428       .  S
N2086      H2090   1.046       .  S
N2086      H2091   1.046       .  S
N2089      H2092   1.045       .  S
N2089      H2093   1.042       .  S
C2094      H2101   1.084       .  S
C2094      C2095   1.401       .  A
C2094      C2099   1.405       .  A
C2095      C2096   1.410       .  A
C2096      C2097   1.409       .  A
C2096      N2103   1.437       .  S
C2097      H2102   1.084       .  S
C2097      C2098   1.403       .  A
C2098      C2099   1.407       .  A
C2099      N2100   1.437       .  S
N2100      H2104   1.046       .  S
N2100      H2105   1.046       .  S
N2103      H2106   1.045       .  S
N2103      H2107   1.046       .  S
C2108      H2115   1.084       .  S
C2108      C2109   1.402       .  A
C2108      C2113   1.396       .  A
C2109      C2110   1.415       .  A
C2110      C2111   1.399       .  A
C2110      N2117   1.432       .  S
C2111      H2116   1.084       .  S
C2111      C2112   1.402       .  A
C2112      C2113   1.416       .  A
C2113      N2114   1.431       .  S
N2114      H2118   1.043       .  S
N2114      H2119   1.042       .  S
N2117      H2120   1.045       .  S
N2117      H2121   1.042       .  S
C2122      H2129   1.080       .  S
C2122      C2123   1.400       .  A
C2122      C2127   1.397       .  A
C2123      C2124   1.412       .  A
C2124      C2125   1.409       .  A
C2124      N2131   1.437       .  S
C2125      H2130   1.084       .  S
C2125      C2126   1.403       .  A
C2126      C2127   1.412       .  A
C2127      N2128   1.432       .  S
N2128      H2132   1.045       .  S
N2128      H2133   1.043       .  S
N2131      H2134   1.045       .  S
N2131      H2135   1.046       .  S
C2136      H2143   1.083       .  S
C2136      C2137   1.405       .  A
C2136      C2141   1.407       .  A
C2137      C2138   1.412       .  A
C2138      C2139   1.404       .  A
C2138      N2145   1.436       .  S
C2139      H2144   1.078       .  S
C2139      C2140   1.401       .  A
C2140      C2141   1.413       .  A
C2141      N2142   1.438       .  S
N2142      H2146   1.046       .  S
N2142      H2147   1.046       .  S
N2145      H2148   1.044       .  S
N2145      H2149   1.046       .  S
C2150      H2157   1.084       .  S
C2150      C2151   1.402       .  A
C2150      C2155   1.405       .  A
C2151      C2152   1.415       .  A
C2152      C2153   1.399       .  A
C2152      N2159   1.438       .  S
C2153      H2158   1.082       .  S
C2153      C2154   1.399       .  A
C2154      C2155   1.407       .  A
C2155      N2156   1.437       .  S
N2156      H2160   1.046       .  S
N2156      H2161   1.045       .  S
N2159      H2162   1.042       .  S
N2159      H2163   1.045       .  S
C2164      H2171   1.079       .  S
C2164      C2165   1.402       .  A
C2164      C2169   1.401       .  A
C2165      C2166   1.416       .  A
C2166      C2167   1.412       .  A
C2166      N2173   1.437       .  S
C2167      H2172   1.083       .  S
C2167      C2168   1.409       .  A
C2168      C2169   1.416       .  A
C2169      N2170   1.430       .  S
N2170      H2174   1.046       .  S
N2170      H2175   1.046       .  S
N2173      H2176   1.046       .  S
N2173      H2177   1.046       .  S
C2178      H2185   1.080       .  S
C2178      C2179   1.404       .  A
C2178      C2183   1.404       .  A
C2179      C2180   1.414       .  A
C2180      C2181   1.406       .  A
C2180      N2187   1.438       .  S
C2181      H2186   1.083       .  S
C2181      C2182   1.404       .  A
C2182      C2183   1.408       .  A
C2183      N2184   1.432       .  S
N2184      H2188   1.046       .  S
N2184      H2189   1.046       .  S
N2187      H2190   1.046       .  S
N2187      H2191   1.046       .  S
C2192      H2199   1.082       .  S
C2192      C2193   1.401       .  A
C2192      C2197   1.404       .  A
C2193      C2194   1.413       .  A
C2194      C2195   1.404       .  A
C2194      N2201   1.438       .  S
C2195      H2200   1.083       .  S
C2195      C2196   1.404       .  A
C2196      C2197   1.412       .  A
C2197      N2198   1.436       .  S
N2198      H2202   1.046       .  S
N2198      H2203   1.044       .  S
N2201      H2204   1.045       .  S
N2201      H2205   1.046       .  S
C2206      H2213   1.082       .  S
C2206      C2207   1.397       .  A
C2206      C2211   1.392       .  A
C2207      C2208   1.417       .  A
C2208      C2209   1.404       .  A
C2208      N2215   1.438       .  S
C2209      H2214   1.084       .  S
C2209      C2210   1.402       .  A
C2210      C2211   1.410       .  A
C2211      N2212   1.429       .  S
N2212      H2216   1.043       .  S
N2212      H2217   1.045       .  S
N2215      H2218   1.043       .  S
N2215      H2219   1.045       .  S
C2220      N2238   1.351       .  A
C2220      C2257   1.462       .  S
C2220      C2297   1.505       .  S
N2221      N2238   1.324       .  A
N2221      N2243   1.319       .  A
N2221     Co2258   2.083   1_565  S
C2222      N2247   1.340       .  A
C2222      C2260   1.461       .  S
C2222      H2267   1.082       .  S
H2223      C2264   1.082       .  S
C2224      N2248   1.343       .  A
C2224      C2228   1.466       .  S
C2224      H2253   1.082       .  S
Co2225     N2233   2.083   1_545  S
N2226      C2264   1.343       .  A
N2226      N2233   1.320       .  A
Co2227     N2234   2.086       .  S
C2228      N2266   1.351       .  A
C2228      C2357   1.512       .  S
N2229      N2236   1.320       .  A
N2229      N2259   1.321       .  A
N2230      N2248   1.319       .  A
N2230      N2266   1.324       .  A
N2231      C2260   1.348       .  A
N2231      N2241   1.322       .  A
H2232      C2257   1.082       .  S
N2233      N2254   1.322       .  A
N2234      N2252   1.318       .  A
N2234      N2239   1.324       .  A
C2235      N2239   1.352       .  A
C2235      C2263   1.461       .  S
C2235      C2321   1.509       .  S
N2236      C2251   1.345       .  A
C2237      N2265   1.344       .  A
C2237      C2240   1.465       .  S
C2237      H2271   1.081       .  S
C2240      N2261   1.352       .  A
C2240      C2309   1.513       .  S
N2241      N2247   1.320       .  A
N2242      C2268   1.340       .  A
N2242      N2244   1.319       .  A
N2243      C2257   1.340       .  A
N2244      N2272   1.323       .  A
N2244     Co2262   2.084       .  S
H2245      C2268   1.082       .  S
H2246      C2263   1.081       .  S
N2249      N2261   1.324       .  A
N2249      N2265   1.319       .  A
C2250      N2254   1.350       .  A
C2250      C2264   1.463       .  S
C2250      C2345   1.507       .  S
C2251      C2270   1.463       .  S
C2251      H2255   1.081       .  S
N2252      C2263   1.342       .  A
C2256      N2272   1.350       .  A
C2256      C2268   1.462       .  S
C2256      C2273   1.505       .  S
N2259      C2270   1.350       .  A
C2260      C2333   1.500       .  S
C2270      C2285   1.507       .  S
C2273      C2274   1.537       .  S
C2273      C2279   1.539       .  S
C2273      C2277   1.531       .  S
C2274      H2281   1.086       .  S
C2274      C2275   1.368       .  D
C2275      C2276   1.539       .  S
C2275      C2513   1.487       .  S
C2276      C2280   1.538       .  S
C2276      C2278   1.539       .  S
C2276      H2282   1.110       .  S
C2277      H2283   1.086       .  S
C2277      C2278   1.363       .  D
C2278      C2524   1.473       .  S
C2279      H2284   1.085       .  S
C2279      C2280   1.367       .  D
C2280      C2496   1.491       .  S
C2285      C2286   1.536       .  S
C2285      C2291   1.544       .  S
C2285      C2289   1.532       .  S
C2286      H2293   1.086       .  S
C2286      C2287   1.356       .  D
C2287      C2288   1.537       .  S
C2287      C2471   1.474       .  S
C2288      C2292   1.545       .  S
C2288      C2290   1.536       .  S
C2288      H2294   1.105       .  S
C2289      H2295   1.086       .  S
C2289      C2290   1.363       .  D
C2290      C2527   1.476       .  S
C2291      H2296   1.085       .  S
C2291      C2292   1.378       .  D
C2292      C2485   1.506       .  S
C2297      C2298   1.540       .  S
C2297      C2303   1.536       .  S
C2297      C2301   1.535       .  S
C2298      H2305   1.086       .  S
C2298      C2299   1.368       .  D
C2299      C2300   1.538       .  S
C2299      C2457   1.489       .  S
C2300      C2304   1.534       .  S
C2300      C2302   1.542       .  S
C2300      H2306   1.111       .  S
C2301      H2307   1.086       .  S
C2301      C2302   1.365       .  D
C2302      C2440   1.482       .  S
C2303      H2308   1.086       .  S
C2303      C2304   1.362       .  D
C2304      C2468   1.472       .  S
C2309      C2310   1.539       .  S
C2309      C2315   1.539       .  S
C2309      C2313   1.536       .  S
C2310      H2317   1.085       .  S
C2310      C2311   1.369       .  D
C2311      C2312   1.540       .  S
C2311      C2499   1.487       .  S
C2312      C2316   1.535       .  S
C2312      C2314   1.538       .  S
C2312      H2318   1.108       .  S
C2313      H2319   1.086       .  S
C2313      C2314   1.366       .  D
C2314      C2443   1.481       .  S
C2315      H2320   1.086       .  S
C2315      C2316   1.365       .  D
C2316      C2426   1.482       .  S
C2321      C2322   1.541       .  S
C2321      C2327   1.537       .  S
C2321      C2325   1.533       .  S
C2322      H2329   1.083       .  S
C2322      C2323   1.370       .  D
C2323      C2324   1.540       .  S
C2323      C2398   1.491       .  S
C2324      C2328   1.537       .  S
C2324      C2326   1.539       .  S
C2324      H2330   1.111       .  S
C2325      H2331   1.086       .  S
C2325      C2326   1.364       .  D
C2326      C2415   1.478       .  S
C2327      H2332   1.086       .  S
C2327      C2328   1.364       .  D
C2328      C2510   1.485       .  S
C2333      C2334   1.535       .  S
C2333      C2339   1.538       .  S
C2333      C2337   1.529       .  S
C2334      H2341   1.085       .  S
C2334      C2335   1.364       .  D
C2335      C2336   1.540       .  S
C2335      C2429   1.481       .  S
C2336      C2340   1.543       .  S
C2336      C2338   1.543       .  S
C2336      H2342   1.110       .  S
C2337      H2343   1.086       .  S
C2337      C2338   1.362       .  D
C2338      C2384   1.474       .  S
C2339      H2344   1.086       .  S
C2339      C2340   1.367       .  D
C2340      C2401   1.494       .  S
C2345      C2346   1.539       .  S
C2345      C2351   1.538       .  S
C2345      C2349   1.535       .  S
C2346      H2353   1.086       .  S
C2346      C2347   1.361       .  D
C2347      C2348   1.533       .  S
C2347      C2370   1.478       .  S
C2348      C2352   1.541       .  S
C2348      C2350   1.536       .  S
C2348      H2354   1.110       .  S
C2349      H2355   1.086       .  S
C2349      C2350   1.365       .  D
C2350      C2387   1.474       .  S
C2351      H2356   1.086       .  S
C2351      C2352   1.369       .  D
C2352      C2454   1.490       .  S
C2357      C2358   1.543       .  S
C2357      C2363   1.533       .  S
C2357      C2361   1.538       .  S
C2358      H2365   1.084       .  S
C2358      C2359   1.372       .  D
C2359      C2360   1.546       .  S
C2359      C2482   1.505       .  S
C2360      C2364   1.542       .  S
C2360      C2362   1.535       .  S
C2360      H2366   1.109       .  S
C2361      H2367   1.086       .  S
C2361      C2362   1.367       .  D
C2362      C2412   1.478       .  S
C2363      H2368   1.086       .  S
C2363      C2364   1.360       .  D
C2364      C2373   1.480       .  S
C2369      H2376   1.085       .  S
C2369      C2370   1.400       .  A
C2369      C2374   1.399       .  A
C2370      C2371   1.418       .  A
C2371      C2372   1.402       .  A
C2371      N2378   1.439       .  S
C2372      H2377   1.084       .  S
C2372      C2373   1.402       .  A
C2373      C2374   1.415       .  A
C2374      N2375   1.437       .  S
N2375      H2379   1.046       .  S
N2375      H2380   1.042       .  S
N2378      H2381   1.042       .  S
N2378      H2382   1.046       .  S
C2383      H2390   1.081       .  S
C2383      C2384   1.396       .  A
C2383      C2388   1.399       .  A
C2384      C2385   1.416       .  A
C2385      C2386   1.403       .  A
C2385      N2392   1.437       .  S
C2386      H2391   1.084       .  S
C2386      C2387   1.401       .  A
C2387      C2388   1.407       .  A
C2388      N2389   1.435       .  S
N2389      H2393   1.046       .  S
N2389      H2394   1.044       .  S
N2392      H2395   1.041       .  S
N2392      H2396   1.046       .  S
C2397      H2404   1.084       .  S
C2397      C2398   1.404       .  A
C2397      C2402   1.404       .  A
C2398      C2399   1.418       .  A
C2399      C2400   1.401       .  A
C2399      N2406   1.432       .  S
C2400      H2405   1.084       .  S
C2400      C2401   1.406       .  A
C2401      C2402   1.410       .  A
C2402      N2403   1.428       .  S
N2403      H2407   1.046       .  S
N2403      H2408   1.046       .  S
N2406      H2409   1.045       .  S
N2406      H2410   1.042       .  S
C2411      H2418   1.084       .  S
C2411      C2412   1.401       .  A
C2411      C2416   1.405       .  A
C2412      C2413   1.410       .  A
C2413      C2414   1.409       .  A
C2413      N2420   1.437       .  S
C2414      H2419   1.084       .  S
C2414      C2415   1.403       .  A
C2415      C2416   1.407       .  A
C2416      N2417   1.437       .  S
N2417      H2421   1.046       .  S
N2417      H2422   1.046       .  S
N2420      H2423   1.045       .  S
N2420      H2424   1.046       .  S
C2425      H2432   1.084       .  S
C2425      C2426   1.402       .  A
C2425      C2430   1.396       .  A
C2426      C2427   1.415       .  A
C2427      C2428   1.399       .  A
C2427      N2434   1.432       .  S
C2428      H2433   1.084       .  S
C2428      C2429   1.402       .  A
C2429      C2430   1.416       .  A
C2430      N2431   1.431       .  S
N2431      H2435   1.043       .  S
N2431      H2436   1.042       .  S
N2434      H2437   1.045       .  S
N2434      H2438   1.042       .  S
C2439      H2446   1.080       .  S
C2439      C2440   1.400       .  A
C2439      C2444   1.397       .  A
C2440      C2441   1.412       .  A
C2441      C2442   1.409       .  A
C2441      N2448   1.437       .  S
C2442      H2447   1.084       .  S
C2442      C2443   1.403       .  A
C2443      C2444   1.412       .  A
C2444      N2445   1.432       .  S
N2445      H2449   1.045       .  S
N2445      H2450   1.043       .  S
N2448      H2451   1.045       .  S
N2448      H2452   1.046       .  S
C2453      H2460   1.083       .  S
C2453      C2454   1.405       .  A
C2453      C2458   1.407       .  A
C2454      C2455   1.412       .  A
C2455      C2456   1.404       .  A
C2455      N2462   1.436       .  S
C2456      H2461   1.078       .  S
C2456      C2457   1.401       .  A
C2457      C2458   1.413       .  A
C2458      N2459   1.438       .  S
N2459      H2463   1.046       .  S
N2459      H2464   1.046       .  S
N2462      H2465   1.044       .  S
N2462      H2466   1.046       .  S
C2467      H2474   1.084       .  S
C2467      C2468   1.402       .  A
C2467      C2472   1.405       .  A
C2468      C2469   1.415       .  A
C2469      C2470   1.399       .  A
C2469      N2476   1.438       .  S
C2470      H2475   1.082       .  S
C2470      C2471   1.399       .  A
C2471      C2472   1.407       .  A
C2472      N2473   1.437       .  S
N2473      H2477   1.046       .  S
N2473      H2478   1.045       .  S
N2476      H2479   1.042       .  S
N2476      H2480   1.045       .  S
C2481      H2488   1.079       .  S
C2481      C2482   1.402       .  A
C2481      C2486   1.401       .  A
C2482      C2483   1.416       .  A
C2483      C2484   1.412       .  A
C2483      N2490   1.437       .  S
C2484      H2489   1.083       .  S
C2484      C2485   1.409       .  A
C2485      C2486   1.416       .  A
C2486      N2487   1.430       .  S
N2487      H2491   1.046       .  S
N2487      H2492   1.046       .  S
N2490      H2493   1.046       .  S
N2490      H2494   1.046       .  S
C2495      H2502   1.080       .  S
C2495      C2496   1.404       .  A
C2495      C2500   1.404       .  A
C2496      C2497   1.414       .  A
C2497      C2498   1.406       .  A
C2497      N2504   1.438       .  S
C2498      H2503   1.083       .  S
C2498      C2499   1.404       .  A
C2499      C2500   1.408       .  A
C2500      N2501   1.432       .  S
N2501      H2505   1.046       .  S
N2501      H2506   1.046       .  S
N2504      H2507   1.046       .  S
N2504      H2508   1.046       .  S
C2509      H2516   1.082       .  S
C2509      C2510   1.401       .  A
C2509      C2514   1.404       .  A
C2510      C2511   1.413       .  A
C2511      C2512   1.404       .  A
C2511      N2518   1.438       .  S
C2512      H2517   1.083       .  S
C2512      C2513   1.404       .  A
C2513      C2514   1.412       .  A
C2514      N2515   1.436       .  S
N2515      H2519   1.046       .  S
N2515      H2520   1.044       .  S
N2518      H2521   1.045       .  S
N2518      H2522   1.046       .  S
C2523      H2530   1.082       .  S
C2523      C2524   1.397       .  A
C2523      C2528   1.392       .  A
C2524      C2525   1.417       .  A
C2525      C2526   1.404       .  A
C2525      N2532   1.438       .  S
C2526      H2531   1.084       .  S
C2526      C2527   1.402       .  A
C2527      C2528   1.410       .  A
C2528      N2529   1.429       .  S
N2529      H2533   1.043       .  S
N2529      H2534   1.045       .  S
N2532      H2535   1.043       .  S
N2532      H2536   1.045       .  S
