geometry optimzed in LAMMPS
_audit_creation_date              2020-12-01 
_audit_creation_method            'lammps2cif' 
_symmetry_space_group_name_H-M    'P1' 
_symmetry_Int_Tables_number       1 
_symmetry_cell_setting            triclinic 
loop_ 
_symmetry_equiv_pos_as_xyz 
  x,y,z 
_cell_length_a                    46.75680684 
_cell_length_b                    46.864587090082395 
_cell_length_c                    24.854277926043697 
_cell_angle_alpha                 89.99745898862149 
_cell_angle_beta                  89.99761148844054 
_cell_angle_gamma                 90.00648388790806 
loop_ 
_atom_site_label 
_atom_site_type_symbol 
_atom_site_fract_x 
_atom_site_fract_y 
_atom_site_fract_z 
_atom_site_charge 
C1          C  0.18638879  0.18981707  0.37937601     0.43000
N2          N  0.21412748  0.19973608  0.44513449     0.01900
C3          C  0.21354313  0.32209895  0.60179302    -0.06000
H4          H  0.22766426  0.34009060  0.39599057     0.07400
C5          C  0.32089401  0.28369668  0.40794787    -0.06400
Co6        Co  0.19555594  0.25245879  0.50341365     0.74200
N7          N  0.21896771  0.30291153  0.44479371    -0.25500
Co8        Co  0.25048907  0.30218045  0.50428184     0.74100
C9          C  0.31128120  0.30980633  0.38188184     0.43100
N10         N  0.29877322  0.21573500  0.44725608     0.01500
N11         N  0.28267103  0.29997563  0.44632610     0.01600
N12         N  0.17774997  0.28954442  0.59960875    -0.46400
H13         H  0.15811992  0.22906226  0.39531980     0.07400
N14         N  0.19802570  0.28399865  0.44445939     0.01900
N15         N  0.28192482  0.30025528  0.56388788     0.01600
C16         C  0.31001440  0.31048208  0.62900918     0.43200
N17         N  0.27779199  0.19686102  0.44678883    -0.25000
C18         C  0.17523451  0.21628230  0.60178376    -0.05900
N19         N  0.20942246  0.18056800  0.40693647    -0.46100
N20         N  0.28690300  0.31965655  0.60154826    -0.46300
C21         C  0.18466623  0.18999573  0.62754204     0.43000
N22         N  0.19719334  0.28437617  0.56200860     0.01900
N23         N  0.27697672  0.19676735  0.56405089    -0.25000
N24         N  0.19512779  0.22058392  0.44486520    -0.25500
N25         N  0.29788291  0.21572042  0.56479571     0.01500
H26         H  0.26839437  0.15915391  0.61169029     0.07400
H27         H  0.33806557  0.27102602  0.61345776     0.07400
N28         N  0.21820045  0.30322463  0.56217712    -0.25500
N29         N  0.30176467  0.27921305  0.44729056    -0.25200
N30         N  0.21323061  0.19981153  0.56283572     0.01900
C31         C  0.18832725  0.31198271  0.37903068     0.43300
C32         C  0.28246597  0.17823318  0.40677539    -0.06400
N33         N  0.30083245  0.27931808  0.56442538    -0.25200
H34         H  0.33954330  0.27075190  0.39975920     0.07400
N35         N  0.17896464  0.28889893  0.40612032    -0.46400
H36         H  0.26939798  0.15985596  0.39738387     0.07400
C37         C  0.30767155  0.18720294  0.62941675     0.43100
C38         C  0.17660480  0.21608623  0.40455605    -0.05900
Co39       Co  0.24547138  0.19769801  0.50470706     0.73800
N40         N  0.31818001  0.21086679  0.40948367    -0.46100
C41         C  0.18694457  0.31276404  0.62662523     0.43400
N42         N  0.20804314  0.18073389  0.60099263    -0.46100
Co43       Co  0.30039614  0.24744346  0.50601065     0.73900
C44         C  0.31953600  0.28397033  0.60437072    -0.06400
C45         C  0.21462753  0.32159143  0.40469046    -0.06000
N46         N  0.19427012  0.22070609  0.56222758    -0.25500
N47         N  0.28778609  0.31899040  0.40806326    -0.46300
H48         H  0.22664446  0.34051114  0.61078196     0.07400
C49         C  0.28137794  0.17776444  0.60356498    -0.06400
Cl50       Cl  0.24797693  0.24994777  0.50463722    -0.49400
C51         C  0.30899705  0.18781431  0.38203918     0.43100
H52         H  0.15669527  0.22934060  0.61020952     0.07300
N53         N  0.31697746  0.21054507  0.60297669    -0.46100
C54         C  0.38782799  0.39088687  0.79910529     0.87000
C55         C  0.37033434  0.40963985  0.83799927    -0.53200
C56         C  0.38683376  0.42632040  0.87058432     0.09900
C57         C  0.41929820  0.42249823  0.86086865     0.20900
C58         C  0.40705931  0.41176315  0.76783681    -0.53900
C59         C  0.42359643  0.42844128  0.80024827     0.10000
C60         C  0.40833485  0.37357811  0.83502609    -0.53500
C61         C  0.42498860  0.39016594  0.86746963     0.10600
H62         H  0.34712129  0.41016319  0.83884661     0.15100
H63         H  0.43283056  0.43605544  0.88728804     0.00900
H64         H  0.40799242  0.41283149  0.72422148     0.15400
H65         H  0.40934648  0.35042792  0.83526498     0.15200
C66         C  0.38796560  0.10990612  0.80062767     0.87000
C67         C  0.40699082  0.08906827  0.76877714    -0.53200
C68         C  0.42353915  0.07212570  0.80069760     0.09900
C69         C  0.41945357  0.07779112  0.86144426     0.20900
C70         C  0.37049630  0.09105655  0.83940682    -0.53900
C71         C  0.38700625  0.07410625  0.87146252     0.10000
C72         C  0.40868884  0.12691553  0.83663145    -0.53500
C73         C  0.42535966  0.11004894  0.86855373     0.10600
H74         H  0.40779377  0.08823263  0.72513728     0.15100
H75         H  0.43298626  0.06402762  0.88747801     0.00900
H76         H  0.34728343  0.09067144  0.84055930     0.15400
H77         H  0.40982098  0.15005793  0.83732896     0.15200
C78         C  0.10685802  0.39057353  0.79773216     0.87000
C79         C  0.08633074  0.37317544  0.83349862    -0.53200
C80         C  0.06942993  0.38969434  0.86561610     0.09900
C81         C  0.07488550  0.42202443  0.85890964     0.20900
C82         C  0.08758562  0.41132895  0.76612196    -0.53900
C83         C  0.07083264  0.42795539  0.79831526     0.10000
C84         C  0.12403900  0.40951167  0.83686250    -0.53500
C85         C  0.10720790  0.42607751  0.86909455     0.10600
H86         H  0.08557982  0.35001826  0.83407303     0.15100
H87         H  0.06116658  0.43550747  0.88512845     0.00900
H88         H  0.08688866  0.41243907  0.72249871     0.15400
H89         H  0.14724231  0.41019319  0.83819045     0.15200
C90         C  0.10712919  0.10931832  0.79810383     0.87000
C91         C  0.12417543  0.09011309  0.83697558    -0.53200
C92         C  0.10722431  0.07366241  0.86921613     0.09900
C93         C  0.07492656  0.07807296  0.85925769     0.20900
C94         C  0.08758858  0.08884986  0.76646051    -0.53900
C95         C  0.07070616  0.07235298  0.79863034     0.10000
C96         C  0.08684576  0.12684566  0.83413533    -0.53500
C97         C  0.06983748  0.11043398  0.86625522     0.10600
H98         H  0.14737180  0.08920679  0.83818115     0.15100
H99         H  0.06110868  0.06467021  0.88544891     0.00900
H100        H  0.08685413  0.08778414  0.72283452     0.15400
H101        H  0.08630975  0.15000722  0.83482954     0.15200
N102        N  0.45307729  0.50031029  0.78542729    -0.36100
N103        N  0.49727507  0.45687287  0.77716923    -0.56600
N104        N  0.04109692  0.50019035  0.78226641    -0.36100
N105        N  0.49711283  0.04363280  0.77714388    -0.56600
C106        C  0.43811548  0.47715793  0.76949758     0.27500
C107        C  0.43801383  0.02342025  0.76960399     0.27500
C108        C  0.05677638  0.47703994  0.76879868     0.27500
C109        C  0.05668556  0.02339725  0.76883718     0.27500
C110        C  0.47420923  0.43955951  0.77724925     0.36100
C111        C  0.02028951  0.43948851  0.77608227     0.36100
C112        C  0.47408145  0.06099897  0.77703278     0.36100
C113        C  0.02016274  0.06096276  0.77606900     0.36100
C114        C  0.41394083  0.48553291  0.74170238    -0.21400
C115        C  0.41385303  0.01497753  0.74185613    -0.21400
C116        C  0.08214514  0.48555257  0.74526281    -0.21400
C117        C  0.08208365  0.01500078  0.74526988    -0.21400
C118        C  0.48247894  0.41148933  0.77212541    -0.22400
C119        C  0.01183014  0.41143628  0.77140101    -0.22400
C120        C  0.48240858  0.08904436  0.77176764    -0.22400
C121        C  0.01176433  0.08902699  0.77115086    -0.22400
C122        C  0.44570931  0.44876674  0.78022669    -0.17800
C123        C  0.44557443  0.05183665  0.78016389    -0.17800
C124        C  0.04875466  0.05186409  0.77856933    -0.17800
C125        C  0.04890179  0.44853055  0.77835514    -0.17800
H126        H  0.39821895  0.47181997  0.72292900     0.15100
H127        H  0.39807323  0.02864446  0.72313898     0.15100
H128        H  0.09872951  0.47192717  0.72910460     0.15100
H129        H  0.09861795  0.02870895  0.72916353     0.15100
H130        H  0.46860484  0.39332216  0.76630705     0.13400
H131        H  0.02554334  0.39318835  0.76511016     0.13400
H132        H  0.46858019  0.10724205  0.76588355     0.13400
H133        H  0.02552546  0.10724069  0.76484322     0.13400
H134        H  0.47150001  0.50032212  0.80899826     0.26700
H135        H  0.02180649  0.50017859  0.80307131     0.26700
C136        C  0.38870955  0.39034799  0.21207090     0.87000
C137        C  0.40922472  0.37326817  0.17576231    -0.53200
C138        C  0.42595045  0.39008469  0.14386792     0.09900
C139        C  0.42040326  0.42231825  0.15144962     0.20900
C140        C  0.40795254  0.41095392  0.24407881    -0.53900
C141        C  0.42458648  0.42783421  0.21213435     0.10000
C142        C  0.37135840  0.40942342  0.17359541    -0.53500
C143        C  0.38805077  0.42624678  0.14168878     0.10600
H144        H  0.41009153  0.35012081  0.17467310     0.15100
H145        H  0.43398770  0.43604724  0.12542935     0.00900
H146        H  0.40874740  0.41175991  0.28772164     0.15400
H147        H  0.34814758  0.40996936  0.17237600     0.15200
C148        C  0.10717208  0.38972017  0.21054342     0.87000
C149        C  0.12502577  0.40862102  0.17247320    -0.53200
C150        C  0.10885982  0.42580591  0.14024771     0.09900
C151        C  0.07631223  0.42224310  0.14941308     0.20900
C152        C  0.08802615  0.41051609  0.24225189    -0.53900
C153        C  0.07182655  0.42772180  0.21016456     0.10000
C154        C  0.08665848  0.37295967  0.17386647    -0.53500
C155        C  0.07032686  0.39000646  0.14177202     0.10600
H156        H  0.14824609  0.40879456  0.17180182     0.15100
H157        H  0.06302562  0.43615156  0.12321136     0.00900
H158        H  0.08690156  0.41114570  0.28587945     0.15400
H159        H  0.08536730  0.34982474  0.17291790     0.15200
N160        N  0.49791718  0.38185862  0.08771072    -0.36100
N161        N  0.45433454  0.37828415  0.00518739    -0.56600
N162        N  0.49742313  0.38121501  0.92137692    -0.36100
N163        N  0.04098203  0.37766275  0.00393610    -0.56600
C164        C  0.47483272  0.37378635  0.11660837     0.27500
C165        C  0.02121213  0.37371924  0.11589491     0.27500
C166        C  0.47406017  0.37331855  0.89309158     0.27500
C167        C  0.02049454  0.37312864  0.89244083     0.27500
C168        C  0.43709517  0.37739161  0.04876136     0.36100
C169        C  0.43680889  0.37718874  0.96204983     0.36100
C170        C  0.05851171  0.37708210  0.04709742     0.36100
C171        C  0.05824894  0.37663920  0.96042231     0.36100
C172        C  0.48342768  0.35956606  0.16253681    -0.21400
C173        C  0.01294800  0.35951160  0.16207706    -0.21400
C174        C  0.48228261  0.35922783  0.84674504    -0.21400
C175        C  0.01182030  0.35913294  0.84630991    -0.21400
C176        C  0.40909093  0.37347399  0.03339647    -0.22400
C177        C  0.40889522  0.37337052  0.97816253    -0.22400
C178        C  0.08646902  0.37342012  0.03113915    -0.22400
C179        C  0.08629727  0.37312177  0.97591770    -0.22400
C180        C  0.44630605  0.37916333  0.10239358    -0.17800
C181        C  0.04962798  0.37914881  0.10087142    -0.17800
C182        C  0.04907117  0.37837381  0.90675772    -0.17800
C183        C  0.44563293  0.37887549  0.90816225    -0.17800
H184        H  0.46981405  0.34994322  0.19272080     0.15100
H185        H  0.02676916  0.34984473  0.19186276     0.15100
H186        H  0.46841912  0.34976897  0.81678715     0.15100
H187        H  0.02539295  0.34959863  0.81596382     0.15100
H188        H  0.39113060  0.36937237  0.05961051     0.13400
H189        H  0.39072160  0.36925650  0.95246679     0.13400
H190        H  0.10467192  0.36972374  0.05697308     0.13400
H191        H  0.10434217  0.36917801  0.94982240     0.13400
H192        H  0.49781649  0.39395709  0.05256614     0.26700
H193        H  0.49760738  0.39321274  0.95662305     0.26700
C194        C  0.10798501  0.10931434  0.21097039     0.87000
C195        C  0.08762149  0.12639347  0.17451526    -0.53200
C196        C  0.07108411  0.10962395  0.14228249     0.09900
C197        C  0.07671489  0.07730462  0.14961443     0.20900
C198        C  0.08864363  0.08861151  0.24254114    -0.53900
C199        C  0.07221453  0.07167361  0.21031902     0.10000
C200        C  0.12559808  0.09035934  0.17270121    -0.53500
C201        C  0.10921866  0.07345003  0.14038897     0.10600
H202        H  0.08657803  0.14954263  0.17381214     0.15100
H203        H  0.06327851  0.06360576  0.12328607     0.00900
H204        H  0.08759877  0.08782449  0.28616453     0.15400
H205        H  0.14881573  0.08993733  0.17195314     0.15200
N206        N  0.45436843  0.49988004  0.22856642    -0.36100
N207        N  0.49849758  0.04318949  0.23398833    -0.56600
N208        N  0.04241762  0.49973203  0.22557418    -0.36100
N209        N  0.49824213  0.45640564  0.23360309    -0.56600
C210        C  0.43892947  0.02304705  0.24279608     0.27500
C211        C  0.43878245  0.47671132  0.24226391     0.27500
C212        C  0.05759622  0.02284710  0.24105377     0.27500
C213        C  0.05746503  0.47653749  0.24109478     0.27500
C214        C  0.47548746  0.06056727  0.23536109     0.36100
C215        C  0.02157027  0.06051791  0.23367963     0.36100
C216        C  0.47516220  0.43909887  0.23452285     0.36100
C217        C  0.02125222  0.43900722  0.23351610     0.36100
C218        C  0.41371363  0.01459647  0.26699927    -0.21400
C219        C  0.41362316  0.48514935  0.26667757    -0.21400
C220        C  0.08187974  0.01435389  0.26835116    -0.21400
C221        C  0.08181046  0.48489908  0.26835088    -0.21400
C222        C  0.48395863  0.08862607  0.23994135    -0.22400
C223        C  0.01330661  0.08858546  0.23889150    -0.22400
C224        C  0.48351376  0.41101003  0.23908580    -0.22400
C225        C  0.01286677  0.41095761  0.23848482    -0.22400
C226        C  0.44686743  0.05153656  0.23343388    -0.17800
C227        C  0.44658244  0.44824004  0.23233216    -0.17800
C228        C  0.04979700  0.44811952  0.23049299    -0.17800
C229        C  0.05007518  0.05130840  0.23047348    -0.17800
H230        H  0.39734615  0.02826668  0.28380515     0.15100
H231        H  0.39717822  0.47146948  0.28319550     0.15100
H232        H  0.09775213  0.02799913  0.28684831     0.15100
H233        H  0.09761328  0.47116636  0.28682453     0.15100
H234        H  0.47026509  0.10688455  0.24631201     0.13400
H235        H  0.02718061  0.10676788  0.24455191     0.13400
H236        H  0.46972837  0.39279491  0.24520214     0.13400
H237        H  0.02665170  0.39271373  0.24419679     0.13400
H238        H  0.47350518  0.49989385  0.20723362     0.26700
H239        H  0.02385588  0.49977875  0.20240804     0.26700
N240        N  0.12311247  0.99963858  0.08758868    -0.36100
N241        N  0.11812080  0.45524962  0.00524910    -0.56600
N242        N  0.11619178  0.99981606  0.92267337    -0.36100
N243        N  0.11796922  0.04423359  0.00528552    -0.56600
C244        C  0.12230224  0.47631936  0.11955844     0.27500
C245        C  0.12236586  0.02293732  0.11958919     0.27500
C246        C  0.11921176  0.47656431  0.89105082     0.27500
C247        C  0.11912478  0.02309835  0.89108172     0.27500
C248        C  0.12575043  0.43954861  0.04840754     0.36100
C249        C  0.12420174  0.43954320  0.96128278     0.36100
C250        C  0.12579202  0.05978971  0.04848743     0.36100
C251        C  0.12406503  0.06001248  0.96140884     0.36100
C252        C  0.12346622  0.48488201  0.17258672    -0.21400
C253        C  0.12351355  0.01434994  0.17261254    -0.21400
C254        C  0.12471214  0.48513135  0.83892695    -0.21400
C255        C  0.12465313  0.01457722  0.83895074    -0.21400
C256        C  0.13774067  0.41409198  0.03190029    -0.22400
C257        C  0.13685317  0.41413407  0.97636445    -0.22400
C258        C  0.13788793  0.08522393  0.03210074    -0.22400
C259        C  0.13689937  0.08531309  0.97658195    -0.22400
C260        C  0.12081734  0.44757509  0.10225129    -0.17800
C261        C  0.12094865  0.05168167  0.10229544    -0.17800
C262        C  0.11793220  0.05181821  0.90808509    -0.17800
C263        C  0.11806502  0.44782676  0.90798776    -0.17800
H264        H  0.12568840  0.47113658  0.20720080     0.15100
H265        H  0.12578791  0.02807405  0.20724321     0.15100
H266        H  0.12977884  0.47149199  0.80516867     0.15100
H267        H  0.12971098  0.02824529  0.80522670     0.15100
H268        H  0.14659329  0.39752958  0.05725337     0.13400
H269        H  0.14506927  0.39768154  0.95003637     0.13400
H270        H  0.14691808  0.10166157  0.05752333     0.13400
H271        H  0.14522573  0.10174338  0.95031976     0.13400
H272        H  0.12325077  0.99968389  0.04623382     0.26700
H273        H  0.11098087  0.99977950  0.96299753     0.26700
N274        N  0.49874651  0.11802701  0.08866303    -0.32000
N275        N  0.04166690  0.12267630  0.00471784    -0.56600
N276        N  0.49798843  0.11881653  0.92233201    -0.36100
N277        N  0.45505549  0.12137133  0.00627198    -0.56600
C278        C  0.02205241  0.12620089  0.11676407     0.27500
C279        C  0.47567239  0.12600203  0.11767395     0.27500
C280        C  0.02099229  0.12697556  0.89328035     0.27500
C281        C  0.47456375  0.12658421  0.89409312     0.27500
C282        C  0.05926797  0.12310050  0.04779556     0.36100
C283        C  0.05886856  0.12365415  0.96110231     0.36100
C284        C  0.43788208  0.12224830  0.04992483     0.36100
C285        C  0.43745048  0.12246077  0.96324846     0.36100
C286        C  0.01381783  0.14033942  0.16303308    -0.21400
C287        C  0.48429053  0.14020213  0.16362490    -0.21400
C288        C  0.01221691  0.14085090  0.84709754    -0.21400
C289        C  0.48268160  0.14065429  0.84766445    -0.21400
C290        C  0.08721857  0.12665002  0.03169540    -0.22400
C291        C  0.08695926  0.12701533  0.97646461    -0.22400
C292        C  0.40985093  0.12612177  0.03472560    -0.22400
C293        C  0.40956458  0.12622959  0.97952235    -0.22400
C294        C  0.05044927  0.12083788  0.10159817    -0.17800
C295        C  0.44714395  0.12055114  0.10350656    -0.17800
C296        C  0.44617003  0.12097103  0.90929790    -0.17800
C297        C  0.04960233  0.12186886  0.90747898    -0.17800
H298        H  0.02766104  0.14999365  0.19280408     0.15100
H299        H  0.47069201  0.14975917  0.19390112     0.15100
H300        H  0.02572206  0.15040663  0.81666508     0.15100
H301        H  0.46875115  0.15005981  0.81776164     0.15100
H302        H  0.10549605  0.13014953  0.05744326     0.13400
H303        H  0.10499703  0.13082481  0.95027806     0.13400
H304        H  0.39193473  0.13023865  0.06103272     0.13400
H305        H  0.39135881  0.13039423  0.95394737     0.13400
H306        H  0.49864932  0.10595872  0.05348446     0.26700
H307        H  0.49828229  0.10685696  0.95762063     0.26700
C308        C  0.38932256  0.10967891  0.21276860     0.87000
C309        C  0.37197137  0.09062440  0.17416947    -0.53200
C310        C  0.38865890  0.07365523  0.14248318     0.09900
C311        C  0.42099923  0.07751213  0.15247836     0.20900
C312        C  0.40840107  0.08900571  0.24496575    -0.53900
C313        C  0.42500297  0.07202029  0.21316755     0.10000
C314        C  0.40999735  0.12663821  0.17660605    -0.53500
C315        C  0.42673850  0.10972497  0.14495414     0.10600
H316        H  0.34876295  0.09019969  0.17272764     0.15100
H317        H  0.43459560  0.06372057  0.12660461     0.00900
H318        H  0.40911479  0.08823271  0.28861419     0.15400
H319        H  0.41095442  0.14978218  0.17541124     0.15200
N320        N  0.37906583  0.49996981  0.08912490    -0.36100
N321        N  0.37781419  0.04447941  0.00665957    -0.56600
N322        N  0.37340046  0.50013945  0.92401215    -0.36100
N323        N  0.37738422  0.45561356  0.00609005    -0.56600
C324        C  0.37640707  0.02319707  0.12088429     0.27500
C325        C  0.37605784  0.47668185  0.12057167     0.27500
C326        C  0.37416411  0.02350409  0.89218628     0.27500
C327        C  0.37407385  0.47688024  0.89188736     0.27500
C328        C  0.37161140  0.06017532  0.05056996     0.36100
C329        C  0.37042590  0.06024145  0.96344662     0.36100
C330        C  0.37108498  0.43984371  0.04984835     0.36100
C331        C  0.37015424  0.43991765  0.96269127     0.36100
C332        C  0.37108323  0.01461257  0.17307563    -0.21400
C333        C  0.37087384  0.48515467  0.17288843    -0.21400
C334        C  0.37297510  0.01501852  0.83911431    -0.21400
C335        C  0.37296752  0.48555592  0.83891434    -0.21400
C336        C  0.35913784  0.08564555  0.03540194    -0.22400
C337        C  0.35848053  0.08573255  0.97987344    -0.22400
C338        C  0.35869708  0.41436942  0.03438371    -0.22400
C339        C  0.35820239  0.41437287  0.97883158    -0.22400
C340        C  0.37763019  0.05190834  0.10388205    -0.17800
C341        C  0.37701259  0.44801840  0.10327333    -0.17800
C342        C  0.37529132  0.44808817  0.90897369    -0.17800
C343        C  0.37547616  0.05222900  0.90962658    -0.17800
H344        H  0.36628598  0.02824942  0.20698125     0.15100
H345        H  0.36593368  0.47146384  0.20665319     0.15100
H346        H  0.37071203  0.02880783  0.80457230     0.15100
H347        H  0.37067935  0.47189994  0.80419296     0.15100
H348        H  0.35093830  0.10213886  0.06165925     0.13400
H349        H  0.34980090  0.10235552  0.95446196     0.13400
H350        H  0.35043470  0.39782298  0.06046186     0.13400
H351        H  0.34958906  0.39779878  0.95322091     0.13400
H352        H  0.38406755  0.49998402  0.04876799     0.26700
H353        H  0.37330207  0.50009232  0.96532780     0.26700
C354        C  0.32550774  0.32734718  0.66755191    -0.18000
C355        C  0.33921761  0.34164372  0.69862372     0.06100
C356        C  0.35573617  0.35851216  0.73410005     0.07900
C357        C  0.37006800  0.37302289  0.76381124    -0.18800
C358        C  0.32423540  0.17176950  0.66855682    -0.18000
C359        C  0.33855842  0.15838913  0.70012412     0.06100
C360        C  0.35556905  0.14224265  0.73601775     0.07900
C361        C  0.37014086  0.12797707  0.76576823    -0.18800
C362        C  0.17035315  0.32807376  0.66598532    -0.18000
C363        C  0.15624649  0.34167751  0.69761366     0.06100
C364        C  0.13946219  0.35824207  0.73330098     0.07900
C365        C  0.12491843  0.37271344  0.76280618    -0.18800
C366        C  0.32642727  0.32613661  0.34211704    -0.18000
C367        C  0.33977890  0.34038991  0.31047361     0.06100
C368        C  0.35620196  0.35747950  0.27530080     0.07900
C369        C  0.37073206  0.37224138  0.24643233    -0.18800
C370        C  0.12527809  0.12710822  0.76320976    -0.18000
C371        C  0.13965205  0.14184600  0.73387149     0.06100
C372        C  0.15591786  0.15909295  0.69847062     0.07900
C373        C  0.16930525  0.17349881  0.66698579    -0.18800
C374        C  0.12467573  0.37135698  0.24529075    -0.18000
C375        C  0.13935006  0.35686564  0.27438859     0.06100
C376        C  0.15679619  0.34065093  0.30930094     0.07900
C377        C  0.17152725  0.32733231  0.34022498    -0.18800
C378        C  0.37139119  0.12790774  0.24703859    -0.18000
C379        C  0.35680038  0.14256733  0.27601095     0.06100
C380        C  0.33990410  0.15918826  0.31123458     0.07900
C381        C  0.32567591  0.17271618  0.34268065    -0.18800
C382        C  0.12573741  0.12744202  0.24568547    -0.18000
C383        C  0.14036738  0.14208937  0.27457169     0.06100
C384        C  0.15726604  0.15892301  0.30937284     0.07900
C385        C  0.17108715  0.17311141  0.34039356    -0.18800
C386        C  0.18638399  0.68983822  0.37937162     0.43000
N387        N  0.21412338  0.69974874  0.44513190     0.01900
C388        C  0.21353212  0.82211632  0.60176719    -0.06000
H389        H  0.22767322  0.84010016  0.39599279     0.07400
C390        C  0.32089759  0.78370366  0.40796913    -0.06400
Co391      Co  0.19555432  0.75246893  0.50341284     0.74200
N392        N  0.21897084  0.80292071  0.44479176    -0.25500
Co393      Co  0.25048830  0.80218494  0.50428744     0.74100
C394        C  0.31129098  0.80981896  0.38191694     0.43100
N395        N  0.29876963  0.71573842  0.44724157     0.01500
N396        N  0.28267339  0.79998168  0.44634345     0.01600
N397        N  0.17773714  0.78956276  0.59958099    -0.46400
H398        H  0.15811760  0.72908363  0.39532741     0.07400
N399        N  0.19802619  0.78401055  0.44445577     0.01900
N400        N  0.28191786  0.80025245  0.56390251     0.01600
C401        C  0.30999891  0.81047478  0.62904008     0.43200
N402        N  0.27778686  0.69686596  0.44677119    -0.25000
C403        C  0.17524452  0.71629590  0.60180462    -0.05900
N404        N  0.20941682  0.68058468  0.40692843    -0.46100
N405        N  0.28689076  0.81965031  0.60157146    -0.46300
C406        C  0.18468069  0.69001213  0.62757029     0.43000
N407        N  0.19718778  0.78438679  0.56199886     0.01900
N408        N  0.27697969  0.69676103  0.56403301    -0.25000
N409        N  0.19512510  0.72059750  0.44486791    -0.25500
N410        N  0.29788460  0.71571518  0.56478301     0.01500
H411        H  0.26840628  0.65913698  0.61164941     0.07400
H412        H  0.33805319  0.77102072  0.61348697     0.07400
N413        N  0.21819556  0.80323405  0.56216880    -0.25500
N414        N  0.30176451  0.77921703  0.44730323    -0.25200
N415        N  0.21323303  0.69982042  0.56283801     0.01900
C416        C  0.18833211  0.81199828  0.37902814     0.43300
C417        C  0.28245729  0.67824148  0.40674982    -0.06400
N418        N  0.30082600  0.77931528  0.56443959    -0.25200
H419        H  0.33954667  0.77075850  0.39978127     0.07400
N420        N  0.17896626  0.78891482  0.40611607    -0.46400
H421        H  0.26938727  0.65986622  0.39735424     0.07400
C422        C  0.30768244  0.68718677  0.62938092     0.43100
C423        C  0.17660145  0.71610513  0.40455895    -0.05900
Co424      Co  0.24546935  0.69770269  0.50469809     0.73800
N425        N  0.31817401  0.71087184  0.40946308    -0.46100
C426        C  0.18692878  0.81278702  0.62658495     0.43400
N427        N  0.20805249  0.68074763  0.60100742    -0.46100
Co428      Co  0.30039404  0.74744369  0.50601071     0.73900
C429        C  0.31952432  0.78396509  0.60439557    -0.06400
C430        C  0.21463393  0.82160234  0.40468956    -0.06000
N431        N  0.19427255  0.72071549  0.56223288    -0.25500
N432        N  0.28779451  0.81900204  0.40809410    -0.46300
H433        H  0.22663139  0.84053086  0.61074947     0.07400
C434        C  0.28138715  0.67775034  0.60353186    -0.06400
Cl435      Cl  0.24797540  0.74995248  0.50463705    -0.49400
C436        C  0.30898798  0.68782262  0.38201067     0.43100
H437        H  0.15670816  0.72935645  0.61024014     0.07300
N438        N  0.31698336  0.71053485  0.60295408    -0.46100
C439        C  0.38782647  0.89088628  0.79910830     0.87000
C440        C  0.37033668  0.90964029  0.83800780    -0.53200
C441        C  0.38683870  0.92631910  0.87059151     0.09900
C442        C  0.41930270  0.92249016  0.86087523     0.20900
C443        C  0.40706102  0.91176132  0.76784271    -0.53900
C444        C  0.42360182  0.92843483  0.80025741     0.10000
C445        C  0.40833169  0.87357259  0.83502210    -0.53500
C446        C  0.42498876  0.89015634  0.86746569     0.10600
H447        H  0.34712378  0.91016598  0.83885858     0.15100
H448        H  0.43283793  0.93604339  0.88729678     0.00900
H449        H  0.40799225  0.91283331  0.72422769     0.15400
H450        H  0.40934082  0.85042221  0.83525534     0.15200
C451        C  0.38796391  0.60990303  0.80063196     0.87000
C452        C  0.40698640  0.58906580  0.76877509    -0.53200
C453        C  0.42353428  0.57212000  0.80068893     0.09900
C454        C  0.41945175  0.57778271  0.86143871     0.20900
C455        C  0.37049436  0.59105273  0.83940718    -0.53900
C456        C  0.38700450  0.57410167  0.87146006     0.10000
C457        C  0.40868919  0.62690896  0.83664046    -0.53500
C458        C  0.42536037  0.61003935  0.86855874     0.10600
H459        H  0.40778867  0.58823361  0.72513486     0.15100
H460        H  0.43298355  0.56401592  0.88746785     0.00900
H461        H  0.34728140  0.59066771  0.84055990     0.15400
H462        H  0.40982135  0.65005123  0.83734496     0.15200
C463        C  0.10686739  0.89057595  0.79774009     0.87000
C464        C  0.08633689  0.87317699  0.83349657    -0.53200
C465        C  0.06943205  0.88969630  0.86560488     0.09900
C466        C  0.07488814  0.92202587  0.85890341     0.20900
C467        C  0.08759821  0.91133131  0.76612173    -0.53900
C468        C  0.07084025  0.92795669  0.79830774     0.10000
C469        C  0.12404438  0.90951232  0.83687757    -0.53500
C470        C  0.10720982  0.92607684  0.86910395     0.10600
H471        H  0.08558733  0.85001973  0.83407289     0.15100
H472        H  0.06116639  0.93550840  0.88511782     0.00900
H473        H  0.08690594  0.91244078  0.72249818     0.15400
H474        H  0.14724761  0.91019403  0.83821428     0.15200
C475        C  0.10712532  0.60932080  0.79809887     0.87000
C476        C  0.12417503  0.59011378  0.83696346    -0.53200
C477        C  0.10722693  0.57366301  0.86921062     0.09900
C478        C  0.07492844  0.57807639  0.85926797     0.20900
C479        C  0.08758057  0.58885276  0.76646447    -0.53900
C480        C  0.07070215  0.57235584  0.79864183     0.10000
C481        C  0.08684605  0.62684861  0.83414019    -0.53500
C482        C  0.06984133  0.61043819  0.86627032     0.10600
H483        H  0.14737149  0.58920674  0.83815975     0.15100
H484        H  0.06111313  0.56467384  0.88546436     0.00900
H485        H  0.08684175  0.58778580  0.72283881     0.15400
H486        H  0.08630971  0.65001015  0.83483145     0.15200
N487        N  0.45308490  0.00030942  0.78543423    -0.36100
N488        N  0.49728030  0.95687181  0.77714763    -0.56600
N489        N  0.04110260  0.00018931  0.78226443    -0.36100
N490        N  0.49710776  0.54363279  0.77715850    -0.56600
C491        C  0.43811188  0.97715693  0.76954113     0.27500
C492        C  0.43801750  0.52342068  0.76955831     0.27500
C493        C  0.05678019  0.97703933  0.76878444     0.27500
C494        C  0.05668350  0.52339805  0.76885379     0.27500
C495        C  0.47421409  0.93955810  0.77724853     0.36100
C496        C  0.02029568  0.93948667  0.77606019     0.36100
C497        C  0.47407695  0.56099894  0.77703078     0.36100
C498        C  0.02015931  0.56096268  0.77608946     0.36100
C499        C  0.41391583  0.98553268  0.74181409    -0.21400
C500        C  0.41387805  0.51497823  0.74174304    -0.21400
C501        C  0.08214306  0.98555251  0.74522738    -0.21400
C502        C  0.08208691  0.51500102  0.74530692    -0.21400
C503        C  0.48248501  0.91148684  0.77214686    -0.22400
C504        C  0.01183572  0.91143494  0.77136958    -0.22400
C505        C  0.48240327  0.58904357  0.77175258    -0.22400
C506        C  0.01176139  0.58902753  0.77118448    -0.22400
C507        C  0.44571276  0.94876420  0.78024193    -0.17800
C508        C  0.44557116  0.55183570  0.78014489    -0.17800
C509        C  0.04875137  0.55186457  0.77858807    -0.17800
C510        C  0.04890793  0.94852936  0.77833975    -0.17800
H511        H  0.39818176  0.97182042  0.72307542     0.15100
H512        H  0.39811032  0.52864543  0.72299026     0.15100
H513        H  0.09872415  0.97192754  0.72905591     0.15100
H514        H  0.09862548  0.52870877  0.72921491     0.15100
H515        H  0.46861116  0.89331744  0.76635209     0.13400
H516        H  0.02554851  0.89318716  0.76507296     0.13400
H517        H  0.46857490  0.60723967  0.76585042     0.13400
H518        H  0.02552310  0.60724189  0.76488942     0.13400
H519        H  0.47152431  0.00032096  0.80895739     0.26700
H520        H  0.02181601  0.00017719  0.80308236     0.26700
C521        C  0.38870860  0.89034670  0.21206906     0.87000
C522        C  0.40922104  0.87326549  0.17575659    -0.53200
C523        C  0.42594501  0.89008121  0.14385696     0.09900
C524        C  0.42039990  0.92231510  0.15144072     0.20900
C525        C  0.40795331  0.91095224  0.24407197    -0.53900
C526        C  0.42458521  0.92783168  0.21212397     0.10000
C527        C  0.37135578  0.90942238  0.17359668    -0.53500
C528        C  0.38804760  0.92624542  0.14168810     0.10600
H529        H  0.41008759  0.85011809  0.17466952     0.15100
H530        H  0.43398355  0.93604368  0.12541817     0.00900
H531        H  0.40874963  0.91175985  0.28771465     0.15400
H532        H  0.34814494  0.90996970  0.17238224     0.15200
C533        C  0.10716056  0.88971536  0.21053081     0.87000
C534        C  0.12501777  0.90861545  0.17246653    -0.53200
C535        C  0.10885565  0.92580546  0.14024568     0.09900
C536        C  0.07630735  0.92224855  0.14940735     0.20900
C537        C  0.08801673  0.91051223  0.24224320    -0.53900
C538        C  0.07182024  0.92772299  0.21015909     0.10000
C539        C  0.08664488  0.87296118  0.17384823    -0.53500
C540        C  0.07031695  0.89001389  0.14175818     0.10600
H541        H  0.14823811  0.90878485  0.17179574     0.15100
H542        H  0.06302390  0.93616121  0.12320761     0.00900
H543        H  0.08689012  0.91113772  0.28587066     0.15400
H544        H  0.08535009  0.84982658  0.17289141     0.15200
N545        N  0.49790880  0.88185594  0.08769384    -0.36100
N546        N  0.45433275  0.87827983  0.00517588    -0.56600
N547        N  0.49742030  0.88121496  0.92135270    -0.36100
N548        N  0.04097776  0.87769016  0.00391665    -0.56600
C549        C  0.47482624  0.87378243  0.11659439     0.27500
C550        C  0.02120489  0.87372565  0.11587260     0.27500
C551        C  0.47405897  0.87330540  0.89307827     0.27500
C552        C  0.02049690  0.87312971  0.89242030     0.27500
C553        C  0.43709164  0.87738734  0.04874821     0.36100
C554        C  0.43680858  0.87717622  0.96203754     0.36100
C555        C  0.05850485  0.87710436  0.04708011     0.36100
C556        C  0.05824643  0.87665417  0.96040727     0.36100
C557        C  0.48342303  0.85956421  0.16252357    -0.21400
C558        C  0.01294407  0.85951168  0.16204999    -0.21400
C559        C  0.48228276  0.85920307  0.84674423    -0.21400
C560        C  0.01182587  0.85913398  0.84628714    -0.21400
C561        C  0.40908926  0.87346173  0.03338153    -0.22400
C562        C  0.40889547  0.87335287  0.97814817    -0.22400
C563        C  0.08646132  0.87342925  0.03112843    -0.22400
C564        C  0.08629247  0.87312607  0.97590780    -0.22400
C565        C  0.44630019  0.87915932  0.10238149    -0.17800
C566        C  0.04961893  0.87916415  0.10085198    -0.17800
C567        C  0.04907189  0.87837812  0.90674150    -0.17800
C568        C  0.44563221  0.87886044  0.90815062    -0.17800
H569        H  0.46981090  0.84994224  0.19271092     0.15100
H570        H  0.02676738  0.84984402  0.19183109     0.15100
H571        H  0.46842016  0.84973438  0.81679578     0.15100
H572        H  0.02540062  0.84960308  0.81594033     0.15100
H573        H  0.39112977  0.86935545  0.05959459     0.13400
H574        H  0.39072381  0.86923129  0.95245179     0.13400
H575        H  0.10466002  0.86972081  0.05696651     0.13400
H576        H  0.10433611  0.86916697  0.94981751     0.13400
H577        H  0.49780618  0.89395562  0.05255079     0.26700
H578        H  0.49760178  0.89322279  0.95658709     0.26700
C579        C  0.10799463  0.60931159  0.21099176     0.87000
C580        C  0.08763272  0.62639605  0.17454210    -0.53200
C581        C  0.07109384  0.60963180  0.14230270     0.09900
C582        C  0.07672200  0.57731075  0.14962528     0.20900
C583        C  0.08865227  0.58860822  0.24255637    -0.53900
C584        C  0.07222225  0.57167459  0.21032935     0.10000
C585        C  0.12560668  0.59035756  0.17271649    -0.53500
C586        C  0.10922551  0.57345236  0.14039715     0.10600
H587        H  0.08659115  0.64954544  0.17384840     0.15100
H588        H  0.06328383  0.56361551  0.12329384     0.00900
H589        H  0.08760775  0.58781729  0.28617974     0.15400
H590        H  0.14882430  0.58993335  0.17196996     0.15200
N591        N  0.45436460  0.99988013  0.22854052    -0.36100
N592        N  0.49850452  0.54318899  0.23399312    -0.56600
N593        N  0.04240883  0.99973166  0.22555505    -0.36100
N594        N  0.49823631  0.95640332  0.23359613    -0.56600
C595        C  0.43893426  0.52304704  0.24282183     0.27500
C596        C  0.43877864  0.97671125  0.24223934     0.27500
C597        C  0.05760719  0.52284740  0.24106320     0.27500
C598        C  0.05745411  0.97653757  0.24108793     0.27500
C599        C  0.47549324  0.56056614  0.23535751     0.36100
C600        C  0.02157732  0.56051612  0.23367191     0.36100
C601        C  0.47515714  0.93909667  0.23452122     0.36100
C602        C  0.02124574  0.93900443  0.23352216     0.36100
C603        C  0.41371761  0.51459693  0.26702406    -0.21400
C604        C  0.41361978  0.98514916  0.26665346    -0.21400
C605        C  0.08189654  0.51435372  0.26834327    -0.21400
C606        C  0.08179375  0.98489964  0.26836042    -0.21400
C607        C  0.48396424  0.58862530  0.23992391    -0.22400
C608        C  0.01331274  0.58858324  0.23888449    -0.22400
C609        C  0.48350801  0.91100738  0.23908969    -0.22400
C610        C  0.01286103  0.91095385  0.23847979    -0.22400
C611        C  0.44687193  0.55153538  0.23344723    -0.17800
C612        C  0.44657910  0.94823903  0.23231825    -0.17800
C613        C  0.04978910  0.94811870  0.23048973    -0.17800
C614        C  0.05008374  0.55130806  0.23048008    -0.17800
H615        H  0.39734928  0.52826742  0.28382637     0.15100
H616        H  0.39717604  0.97146912  0.28317498     0.15100
H617        H  0.09777319  0.52799855  0.28682893     0.15100
H618        H  0.09759249  0.97116723  0.28684690     0.15100
H619        H  0.47027029  0.60688363  0.24629186     0.13400
H620        H  0.02718624  0.60676511  0.24455589     0.13400
H621        H  0.46972261  0.89279201  0.24520462     0.13400
H622        H  0.02664640  0.89270899  0.24417640     0.13400
H623        H  0.47350291  0.99989387  0.20721197     0.26700
H624        H  0.02384997  0.99977805  0.20237957     0.26700
N625        N  0.12312756  0.49963999  0.08757390    -0.36100
N626        N  0.11814600  0.95525542  0.00525563    -0.56600
N627        N  0.11620442  0.49981675  0.92266792    -0.36100
N628        N  0.11794942  0.54424143  0.00528362    -0.56600
C629        C  0.12229311  0.97631850  0.11957173     0.27500
C630        C  0.12237700  0.52293870  0.11957825     0.27500
C631        C  0.11919686  0.97656397  0.89105632     0.27500
C632        C  0.11914214  0.52309948  0.89107793     0.27500
C633        C  0.12576432  0.93955087  0.04841636     0.36100
C634        C  0.12421487  0.93954524  0.96128876     0.36100
C635        C  0.12578300  0.55979455  0.04848323     0.36100
C636        C  0.12405721  0.56001583  0.96140651     0.36100
C637        C  0.12345700  0.98488138  0.17260109    -0.21400
C638        C  0.12352394  0.51435006  0.17259973    -0.21400
C639        C  0.12468521  0.98513069  0.83892803    -0.21400
C640        C  0.12468153  0.51457831  0.83895066    -0.21400
C641        C  0.13773934  0.91408705  0.03190901    -0.22400
C642        C  0.13685141  0.91412892  0.97637220    -0.22400
C643        C  0.13789433  0.58522109  0.03209541    -0.22400
C644        C  0.13690635  0.58530926  0.97657739    -0.22400
C645        C  0.12081829  0.94757517  0.10225922    -0.17800
C646        C  0.12095202  0.55168472  0.10229267    -0.17800
C647        C  0.11793722  0.55181962  0.90807987    -0.17800
C648        C  0.11806436  0.94782693  0.90799640    -0.17800
H649        H  0.12568106  0.97113663  0.20721624     0.15100
H650        H  0.12579732  0.52807368  0.20723086     0.15100
H651        H  0.12974938  0.97149143  0.80516842     0.15100
H652        H  0.12974299  0.52824653  0.80522859     0.15100
H653        H  0.14657735  0.89751722  0.05726273     0.13400
H654        H  0.14505305  0.89766884  0.95004529     0.13400
H655        H  0.14693879  0.60165161  0.05751647     0.13400
H656        H  0.14524690  0.60173174  0.95031350     0.13400
H657        H  0.12326975  0.49968516  0.04621825     0.26700
H658        H  0.11098553  0.49978060  0.96298859     0.26700
N659        N  0.49875887  0.61802618  0.08867988    -0.32000
N660        N  0.04167518  0.62270451  0.00474056    -0.56600
N661        N  0.49799346  0.61881854  0.92235612    -0.36100
N662        N  0.45506054  0.62136681  0.00628359    -0.56600
C663        C  0.02206039  0.62620937  0.11678609     0.27500
C664        C  0.47568238  0.62600077  0.11768614     0.27500
C665        C  0.02099560  0.62697759  0.89330478     0.27500
C666        C  0.47456672  0.62657312  0.89410721     0.27500
C667        C  0.05927764  0.62312180  0.04781777     0.36100
C668        C  0.05887621  0.62367007  0.96112218     0.36100
C669        C  0.43788904  0.62224044  0.04993859     0.36100
C670        C  0.43745329  0.62244658  0.96326164     0.36100
C671        C  0.01382138  0.64034538  0.16305510    -0.21400
C672        C  0.48429817  0.64020739  0.16363181    -0.21400
C673        C  0.01221661  0.64085370  0.84712552    -0.21400
C674        C  0.48268284  0.64063423  0.84766878    -0.21400
C675        C  0.08722958  0.62665713  0.03171384    -0.22400
C676        C  0.08696890  0.62701901  0.97648213    -0.22400
C677        C  0.40985546  0.62610207  0.03474234    -0.22400
C678        C  0.40956660  0.62620596  0.97953891    -0.22400
C679        C  0.05045934  0.62085315  0.10162140    -0.17800
C680        C  0.44715354  0.62054596  0.10351911    -0.17800
C681        C  0.44617239  0.62095677  0.90930978    -0.17800
C682        C  0.04960766  0.62187595  0.90749920    -0.17800
H683        H  0.02766170  0.65000089  0.19282947     0.15100
H684        H  0.47069777  0.64976627  0.19390293     0.15100
H685        H  0.02571934  0.65041522  0.81669601     0.15100
H686        H  0.46875112  0.65003065  0.81775811     0.15100
H687        H  0.10551036  0.63014384  0.05745976     0.13400
H688        H  0.10500848  0.63081365  0.95029250     0.13400
H689        H  0.39193836  0.63021203  0.06105138     0.13400
H690        H  0.39135818  0.63036182  0.95396572     0.13400
H691        H  0.49866404  0.60595600  0.05350337     0.26700
H692        H  0.49829084  0.60686756  0.95765469     0.26700
C693        C  0.38932517  0.60967539  0.21276928     0.87000
C694        C  0.37197626  0.59062187  0.17416465    -0.53200
C695        C  0.38866484  0.57365217  0.14248149     0.09900
C696        C  0.42100521  0.57750757  0.15248623     0.20900
C697        C  0.40840081  0.58900122  0.24497088    -0.53900
C698        C  0.42500530  0.57201593  0.21317647     0.10000
C699        C  0.41000391  0.62663385  0.17661305    -0.53500
C700        C  0.42674761  0.60972015  0.14496653     0.10600
H701        H  0.34876793  0.59019832  0.17271693     0.15100
H702        H  0.43460280  0.56371564  0.12661550     0.00900
H703        H  0.40911235  0.58822903  0.28861944     0.15400
H704        H  0.41096133  0.64977777  0.17541750     0.15200
N705        N  0.37908319  0.99997129  0.08913162    -0.36100
N706        N  0.37783295  0.54447810  0.00665054    -0.56600
N707        N  0.37343652  0.00014151  0.92402422    -0.36100
N708        N  0.37736999  0.95561633  0.00610061    -0.56600
C709        C  0.37640094  0.52319546  0.12088097     0.27500
C710        C  0.37606582  0.97668299  0.12057499     0.27500
C711        C  0.37416691  0.52350085  0.89217418     0.27500
C712        C  0.37407393  0.97688089  0.89190084     0.27500
C713        C  0.37162264  0.56017172  0.05056193     0.36100
C714        C  0.37042776  0.56023441  0.96343953     0.36100
C715        C  0.37107663  0.93984411  0.04985667     0.36100
C716        C  0.37015619  0.93991538  0.96270022     0.36100
C717        C  0.37108600  0.51461151  0.17307664    -0.21400
C718        C  0.37087221  0.98515588  0.17288730    -0.21400
C719        C  0.37302892  0.51501643  0.83909707    -0.21400
C720        C  0.37291549  0.98555676  0.83893256    -0.21400
C721        C  0.35913333  0.58563428  0.03539524    -0.22400
C722        C  0.35847016  0.58571914  0.97986777    -0.22400
C723        C  0.35870292  0.91436316  0.03439037    -0.22400
C724        C  0.35821477  0.91436490  0.97883774    -0.22400
C725        C  0.37763576  0.55190577  0.10387718    -0.17800
C726        C  0.37701026  0.94801882  0.10327783    -0.17800
C727        C  0.37529940  0.94808774  0.90898541    -0.17800
C728        C  0.37547337  0.55222415  0.90961812    -0.17800
H729        H  0.36629964  0.52824889  0.20698703     0.15100
H730        H  0.36592195  0.97146516  0.20664687     0.15100
H731        H  0.37080151  0.52880655  0.80454847     0.15100
H732        H  0.37059285  0.97190073  0.80421896     0.15100
H733        H  0.35092519  0.60212298  0.06165317     0.13400
H734        H  0.34977865  0.60233649  0.95445752     0.13400
H735        H  0.35044803  0.89781242  0.06046734     0.13400
H736        H  0.34961275  0.89778581  0.95322522     0.13400
H737        H  0.38409449  0.99998593  0.04877874     0.26700
H738        H  0.37339229  0.00009427  0.96533806     0.26700
C739        C  0.32549160  0.82734300  0.66758059    -0.18000
C740        C  0.33920241  0.84164362  0.69864523     0.06100
C741        C  0.35572541  0.85851502  0.73411079     0.07900
C742        C  0.37006198  0.87302572  0.76381476    -0.18800
C743        C  0.32424459  0.67175644  0.66852791    -0.18000
C744        C  0.33856407  0.65838003  0.70010684     0.06100
C745        C  0.35556978  0.64223795  0.73601558     0.07900
C746        C  0.37013933  0.62797505  0.76577445    -0.18800
C747        C  0.17034241  0.82809300  0.66595219    -0.18000
C748        C  0.15624421  0.84169167  0.69759817     0.06100
C749        C  0.13947025  0.85824974  0.73330757     0.07900
C750        C  0.12493021  0.87271772  0.76282151    -0.18800
C751        C  0.32644113  0.82615171  0.34216362    -0.18000
C752        C  0.33979201  0.84040347  0.31051787     0.06100
C753        C  0.35620946  0.85748718  0.27532756     0.07900
C754        C  0.37073422  0.87224340  0.24644047    -0.18800
C755        C  0.12527259  0.62711064  0.76319663    -0.18000
C756        C  0.13965059  0.64184949  0.73386444     0.06100
C757        C  0.15592507  0.65910085  0.69848104     0.07900
C758        C  0.16931797  0.67351136  0.66700964    -0.18800
C759        C  0.12466401  0.87134879  0.24527320    -0.18000
C760        C  0.13934582  0.85686327  0.27436883     0.06100
C761        C  0.15680162  0.84065975  0.30928431     0.07900
C762        C  0.17153585  0.82734779  0.34021441    -0.18800
C763        C  0.37139082  0.62790557  0.24703350    -0.18000
C764        C  0.35679645  0.64256759  0.27599655     0.06100
C765        C  0.33989626  0.65919231  0.31120965     0.07900
C766        C  0.32566661  0.67272293  0.34265091    -0.18800
C767        C  0.12574412  0.62743665  0.24571484    -0.18000
C768        C  0.14036516  0.64209025  0.27460417     0.06100
C769        C  0.15725525  0.65893554  0.30939685     0.07900
C770        C  0.17107576  0.67313155  0.34040391    -0.18800
C771        C  0.68638791  0.18981936  0.37937357     0.43000
N772        N  0.71412716  0.19973701  0.44513192     0.01900
C773        C  0.71354105  0.32209850  0.60179205    -0.06000
H774        H  0.72766365  0.34008914  0.39598981     0.07400
C775        C  0.82089277  0.28369445  0.40794427    -0.06400
Co776      Co  0.69555543  0.25245797  0.50341470     0.74200
N777        N  0.71896667  0.30291097  0.44479501    -0.25500
Co778      Co  0.75048890  0.30217993  0.50428185     0.74100
C779        C  0.81128050  0.30980436  0.38187804     0.43100
N780        N  0.79877290  0.21573400  0.44725672     0.01500
N781        N  0.78267077  0.29997475  0.44632444     0.01600
N782        N  0.67774848  0.28954324  0.59960723    -0.46400
H783        H  0.65811880  0.22906384  0.39532144     0.07400
N784        N  0.69802433  0.28399843  0.44446180     0.01900
N785        N  0.78192602  0.30025541  0.56388620     0.01600
C786        C  0.81001785  0.31048321  0.62900337     0.43200
N787        N  0.77779110  0.19686080  0.44678786    -0.25000
C788        C  0.67523583  0.21627943  0.60178579    -0.05900
N789        N  0.70942184  0.18056973  0.40693268    -0.46100
N790        N  0.78690556  0.31965738  0.60154473    -0.46300
C791        C  0.68466924  0.18999296  0.62754292     0.43000
N792        N  0.69719305  0.28437455  0.56200963     0.01900
N793        N  0.77697555  0.19676676  0.56405017    -0.25000
N794        N  0.69512727  0.22058462  0.44486465    -0.25500
N795        N  0.79788185  0.21571969  0.56479658     0.01500
H796        H  0.76839137  0.15915376  0.61168948     0.07400
H797        H  0.83806822  0.27102654  0.61345195     0.07400
N798        N  0.71819991  0.30322342  0.56217812    -0.25500
N799        N  0.80176404  0.27921174  0.44728855    -0.25200
N800        N  0.71323097  0.19980997  0.56283351     0.01900
C801        C  0.68832594  0.31198189  0.37903214     0.43300
C802        C  0.78246482  0.17823306  0.40677432    -0.06400
N803        N  0.80083351  0.27931803  0.56442330    -0.25200
H804        H  0.83954150  0.27074901  0.39975483     0.07400
N805        N  0.67896315  0.28889850  0.40612278    -0.46400
H806        H  0.76939638  0.15985629  0.39738193     0.07400
C807        C  0.80766887  0.18720176  0.62941859     0.43100
C808        C  0.67660400  0.21608785  0.40455575    -0.05900
Co809      Co  0.74547086  0.19769776  0.50470507     0.73800
N810        N  0.81818014  0.21086523  0.40948557    -0.46100
C811        C  0.68694199  0.31276358  0.62662229     0.43400
N812        N  0.70804554  0.18073209  0.60099084    -0.46100
Co813      Co  0.80039588  0.24744265  0.50601028     0.73900
C814        C  0.81953852  0.28397092  0.60436600    -0.06400
C815        C  0.71462650  0.32159048  0.40469112    -0.06000
N816        N  0.69427011  0.22070414  0.56222756    -0.25500
N817        N  0.78778595  0.31898913  0.40806078    -0.46300
H818        H  0.72664124  0.34051163  0.61077989     0.07400
C819        C  0.78137554  0.17776395  0.60356491    -0.06400
Cl820      Cl  0.74797660  0.24994734  0.50463733    -0.49400
C821        C  0.80899666  0.18781332  0.38204030     0.43100
H822        H  0.65669679  0.22933742  0.61021466     0.07300
N823        N  0.81697563  0.21054382  0.60297887    -0.46100
C824        C  0.88782561  0.39088625  0.79910853     0.87000
C825        C  0.87033288  0.40963982  0.83800222    -0.53200
C826        C  0.88683343  0.42632067  0.87058414     0.09900
C827        C  0.91929731  0.42249841  0.86086723     0.20900
C828        C  0.90705655  0.41176211  0.76783722    -0.53900
C829        C  0.92359441  0.42844076  0.80024691     0.10000
C830        C  0.90833291  0.37357800  0.83502919    -0.53500
C831        C  0.92498727  0.39016646  0.86747032     0.10600
H832        H  0.84711984  0.41016341  0.83885174     0.15100
H833        H  0.93283005  0.43605602  0.88728525     0.00900
H834        H  0.90798863  0.41282987  0.72422180     0.15400
H835        H  0.90934396  0.35042780  0.83527066     0.15200
C836        C  0.88796424  0.10990366  0.80063002     0.87000
C837        C  0.90698941  0.08906436  0.76878352    -0.53200
C838        C  0.92353755  0.07212330  0.80070669     0.09900
C839        C  0.91945122  0.07779077  0.86145295     0.20900
C840        C  0.87049434  0.09105595  0.83941172    -0.53900
C841        C  0.88700339  0.07410673  0.87147138     0.10000
C842        C  0.90868770  0.12691435  0.83663171    -0.53500
C843        C  0.92535809  0.11004885  0.86855727     0.10600
H844        H  0.90779315  0.08822729  0.72514379     0.15100
H845        H  0.93298359  0.06402813  0.88748887     0.00900
H846        H  0.84728144  0.09067070  0.84056198     0.15400
H847        H  0.90982064  0.15005675  0.83732469     0.15200
C848        C  0.60685897  0.39057353  0.79773016     0.87000
C849        C  0.58633484  0.37317483  0.83350166    -0.53200
C850        C  0.56943440  0.38969338  0.86562022     0.09900
C851        C  0.57488742  0.42202365  0.85891020     0.20900
C852        C  0.58758375  0.41132679  0.76612136    -0.53900
C853        C  0.57083155  0.42795312  0.79831602     0.10000
C854        C  0.62404069  0.40951367  0.83685542    -0.53500
C855        C  0.60720998  0.42607871  0.86908933     0.10600
H856        H  0.58558480  0.35001762  0.83407675     0.15100
H857        H  0.56116892  0.43550645  0.88513020     0.00900
H858        H  0.58688525  0.41243647  0.72249817     0.15400
H859        H  0.64724402  0.41019647  0.83817986     0.15200
C860        C  0.60713122  0.10931837  0.79810867     0.87000
C861        C  0.62417592  0.09011403  0.83698409    -0.53200
C862        C  0.60722362  0.07366301  0.86922170     0.09900
C863        C  0.57492618  0.07807310  0.85925850     0.20900
C864        C  0.58759246  0.08884899  0.76646312    -0.53900
C865        C  0.57070848  0.07235227  0.79863053     0.10000
C866        C  0.58684574  0.12684583  0.83413632    -0.53500
C867        C  0.56983641  0.11043426  0.86625481     0.10600
H868        H  0.64737226  0.08920829  0.83819371     0.15100
H869        H  0.56110746  0.06467040  0.88544825     0.00900
H870        H  0.58686005  0.08778285  0.72283708     0.15400
H871        H  0.58630991  0.15000740  0.83483041     0.15200
N872        N  0.95307537  0.50030999  0.78542270    -0.36100
N873        N  0.99727397  0.45687393  0.77716769    -0.56600
N874        N  0.54109616  0.50019005  0.78227585    -0.36100
N875        N  0.99711160  0.04363237  0.77715885    -0.56600
C876        C  0.93811294  0.47715752  0.76949548     0.27500
C877        C  0.93801635  0.02342006  0.76960680     0.27500
C878        C  0.55677670  0.47703978  0.76881014     0.27500
C879        C  0.55668713  0.02339763  0.76882726     0.27500
C880        C  0.97420816  0.43956009  0.77725725     0.36100
C881        C  0.52029012  0.43948745  0.77607231     0.36100
C882        C  0.97408036  0.06099848  0.77704056     0.36100
C883        C  0.52016442  0.06096324  0.77606833     0.36100
C884        C  0.91393707  0.48553253  0.74170381    -0.21400
C885        C  0.91386475  0.01497794  0.74182987    -0.21400
C886        C  0.58214586  0.48555280  0.74527712    -0.21400
C887        C  0.58208599  0.01500093  0.74526259    -0.21400
C888        C  0.98247862  0.41148932  0.77215152    -0.22400
C889        C  0.51183059  0.41143602  0.77137258    -0.22400
C890        C  0.98240662  0.08904300  0.77175664    -0.22400
C891        C  0.51176628  0.08902836  0.77116725    -0.22400
C892        C  0.94570733  0.44876640  0.78022507    -0.17800
C893        C  0.94557424  0.05183563  0.78017478    -0.17800
C894        C  0.54875667  0.05186423  0.77856563    -0.17800
C895        C  0.54890172  0.44852960  0.77835750    -0.17800
H896        H  0.89821406  0.47181961  0.72293363     0.15100
H897        H  0.89809049  0.02864514  0.72309683     0.15100
H898        H  0.59873013  0.47192760  0.72911811     0.15100
H899        H  0.59862165  0.02870893  0.72916062     0.15100
H900        H  0.96860494  0.39332117  0.76634138     0.13400
H901        H  0.52554353  0.39318879  0.76507150     0.13400
H902        H  0.96857773  0.10723940  0.76586189     0.13400
H903        H  0.52552782  0.10724309  0.76487389     0.13400
H904        H  0.97149877  0.50032192  0.80899168     0.26700
H905        H  0.52180433  0.50017826  0.80307599     0.26700
C906        C  0.88870782  0.39034888  0.21206630     0.87000
C907        C  0.90922310  0.37326783  0.17576018    -0.53200
C908        C  0.92595015  0.39008347  0.14386682     0.09900
C909        C  0.92040373  0.42231707  0.15144486     0.20900
C910        C  0.90795124  0.41095494  0.24407370    -0.53900
C911        C  0.92458639  0.42783383  0.21212843     0.10000
C912        C  0.87135804  0.40942427  0.17358829    -0.53500
C913        C  0.88805173  0.42624680  0.14168239     0.10600
H914        H  0.91008916  0.35012042  0.17467187     0.15100
H915        H  0.93398909  0.43604504  0.12542429     0.00900
H916        H  0.90874535  0.41176206  0.28771646     0.15400
H917        H  0.84814728  0.40997116  0.17236727     0.15200
C918        C  0.60717381  0.38972068  0.21054111     0.87000
C919        C  0.62502605  0.40862325  0.17247205    -0.53200
C920        C  0.60885863  0.42580828  0.14024985     0.09900
C921        C  0.57631150  0.42224403  0.14941574     0.20900
C922        C  0.58802746  0.41051512  0.24225265    -0.53900
C923        C  0.57182658  0.42772100  0.21016755     0.10000
C924        C  0.58666036  0.37296050  0.17386315    -0.53500
C925        C  0.57032750  0.39000751  0.14177135     0.10600
H926        H  0.64824634  0.40879719  0.17179764     0.15100
H927        H  0.56302407  0.43615273  0.12321585     0.00900
H928        H  0.58690408  0.41114413  0.28588033     0.15400
H929        H  0.58537023  0.34982558  0.17291183     0.15200
N930        N  0.99791690  0.38185427  0.08771089    -0.36100
N931        N  0.95433365  0.37828873  0.00518821    -0.56600
N932        N  0.99742076  0.38121882  0.92137525    -0.36100
N933        N  0.54098434  0.37766591  0.00393632    -0.56600
C934        C  0.97483238  0.37378458  0.11661055     0.27500
C935        C  0.52121237  0.37372165  0.11589312     0.27500
C936        C  0.97405759  0.37331797  0.89309520     0.27500
C937        C  0.52049753  0.37313036  0.89243839     0.27500
C938        C  0.93709493  0.37739275  0.04876251     0.36100
C939        C  0.93680743  0.37719261  0.96205168     0.36100
C940        C  0.55851293  0.37707859  0.04709836     0.36100
C941        C  0.55825123  0.37663390  0.96042354     0.36100
C942        C  0.98342726  0.35956804  0.16254326    -0.21400
C943        C  0.51294833  0.35950996  0.16207072    -0.21400
C944        C  0.98227900  0.35921903  0.84675694    -0.21400
C945        C  0.51182393  0.35914255  0.84629879    -0.21400
C946        C  0.90909083  0.37347295  0.03339852    -0.22400
C947        C  0.90889440  0.37337107  0.97816486    -0.22400
C948        C  0.58646894  0.37340379  0.03114221    -0.22400
C949        C  0.58629795  0.37310443  0.97592045    -0.22400
C950        C  0.94630587  0.37916167  0.10239456    -0.17800
C951        C  0.54962847  0.37915031  0.10087075    -0.17800
C952        C  0.54907434  0.37837263  0.90675899    -0.17800
C953        C  0.94563102  0.37887730  0.90816431    -0.17800
H954        H  0.96981356  0.34994813  0.19273049     0.15100
H955        H  0.52676960  0.34984033  0.19185307     0.15100
H956        H  0.96841485  0.34975609  0.81680463     0.15100
H957        H  0.52539709  0.34961302  0.81594815     0.15100
H958        H  0.89113131  0.36936803  0.05961278     0.13400
H959        H  0.89072119  0.36925434  0.95246968     0.13400
H960        H  0.60466992  0.36970019  0.05697740     0.13400
H961        H  0.60434183  0.36915287  0.94982659     0.13400
H962        H  0.99781633  0.39395069  0.05256398     0.26700
H963        H  0.99760578  0.39322232  0.95661481     0.26700
C964        C  0.60798307  0.10931491  0.21097314     0.87000
C965        C  0.58761846  0.12639412  0.17452045    -0.53200
C966        C  0.57108198  0.10962463  0.14228603     0.09900
C967        C  0.57671475  0.07730526  0.14961401     0.20900
C968        C  0.58864307  0.08861012  0.24254185    -0.53900
C969        C  0.57221500  0.07167219  0.21031824     0.10000
C970        C  0.62559717  0.09036203  0.17270142    -0.53500
C971        C  0.60921876  0.07345252  0.14038733     0.10600
H972        H  0.58657387  0.14954330  0.17381973     0.15100
H973        H  0.56327894  0.06360650  0.12328446     0.00900
H974        H  0.58759777  0.08782237  0.28616518     0.15400
H975        H  0.64881483  0.08994086  0.17195436     0.15200
N976        N  0.95436801  0.49988022  0.22855096    -0.36100
N977        N  0.99849716  0.04318979  0.23399787    -0.56600
N978        N  0.54241595  0.49973244  0.22558853    -0.36100
N979        N  0.99824174  0.45640616  0.23358937    -0.56600
C980        C  0.93892798  0.02304696  0.24280740     0.27500
C981        C  0.93878179  0.47671175  0.24224887     0.27500
C982        C  0.55759425  0.02284616  0.24105424     0.27500
C983        C  0.55746807  0.47653779  0.24109288     0.27500
C984        C  0.97548677  0.06056733  0.23536926     0.36100
C985        C  0.52157066  0.06051744  0.23367590     0.36100
C986        C  0.97516189  0.43909946  0.23451561     0.36100
C987        C  0.52125283  0.43900692  0.23352236     0.36100
C988        C  0.91371122  0.01459625  0.26700765    -0.21400
C989        C  0.91362212  0.48514982  0.26666067    -0.21400
C990        C  0.58187038  0.01435277  0.26837479    -0.21400
C991        C  0.58182296  0.48489986  0.26831828    -0.21400
C992        C  0.98395791  0.08862652  0.23994233    -0.22400
C993        C  0.51330737  0.08858482  0.23889321    -0.22400
C994        C  0.98351334  0.41101112  0.23909001    -0.22400
C995        C  0.51286722  0.41095675  0.23848006    -0.22400
C996        C  0.94686653  0.05153653  0.23344484    -0.17800
C997        C  0.94658222  0.44824030  0.23232300    -0.17800
C998        C  0.54979798  0.44811926  0.23049806    -0.17800
C999        C  0.55007506  0.05130745  0.23047115    -0.17800
H1000       H  0.89734322  0.02826642  0.28381193     0.15100
H1001       H  0.89717726  0.47147003  0.28317908     0.15100
H1002       H  0.59773838  0.02799783  0.28688590     0.15100
H1003       H  0.59763141  0.47116743  0.28677537     0.15100
H1004       H  0.97026445  0.10688544  0.24630922     0.13400
H1005       H  0.52718148  0.10676673  0.24455899     0.13400
H1006       H  0.96972788  0.39279677  0.24521399     0.13400
H1007       H  0.52665225  0.39271227  0.24418361     0.13400
H1008       H  0.97350561  0.49989392  0.20722061     0.26700
H1009       H  0.52384775  0.49977890  0.20244142     0.26700
N1010       N  0.62312798  0.99963867  0.08758576    -0.36100
N1011       N  0.61812548  0.45525255  0.00524447    -0.56600
N1012       N  0.61618892  0.99981616  0.92268278    -0.36100
N1013       N  0.61796598  0.04423645  0.00529011    -0.56600
C1014       C  0.62230606  0.47631912  0.11956056     0.27500
C1015       C  0.62236215  0.02293767  0.11958604     0.27500
C1016       C  0.61921454  0.47656446  0.89104500     0.27500
C1017       C  0.61912179  0.02309837  0.89109030     0.27500
C1018       C  0.62574478  0.43954817  0.04840526     0.36100
C1019       C  0.62420088  0.43954321  0.96127908     0.36100
C1020       C  0.62579508  0.05979080  0.04848959     0.36100
C1021       C  0.62406476  0.06001351  0.96141310     0.36100
C1022       C  0.62349998  0.48488113  0.17258812    -0.21400
C1023       C  0.62348501  0.01435002  0.17260971    -0.21400
C1024       C  0.62471882  0.48513168  0.83892256    -0.21400
C1025       C  0.62464881  0.01457682  0.83895941    -0.21400
C1026       C  0.63772544  0.41408688  0.03189952    -0.22400
C1027       C  0.63684070  0.41412909  0.97636357    -0.22400
C1028       C  0.63789595  0.08522260  0.03210193    -0.22400
C1029       C  0.63690560  0.08531150  0.97658344    -0.22400
C1030       C  0.62081377  0.44757605  0.10225023    -0.17800
C1031       C  0.62095053  0.05168325  0.10229583    -0.17800
C1032       C  0.61793026  0.05181873  0.90809139    -0.17800
C1033       C  0.61806749  0.44782728  0.90798258    -0.17800
H1034       H  0.62573771  0.47113593  0.20719974     0.15100
H1035       H  0.62574645  0.02807459  0.20724195     0.15100
H1036       H  0.62978868  0.47149257  0.80516549     0.15100
H1037       H  0.62970667  0.02824463  0.80523514     0.15100
H1038       H  0.64657140  0.39752160  0.05725393     0.13400
H1039       H  0.64505182  0.39767346  0.95003706     0.13400
H1040       H  0.64692974  0.10165884  0.05752333     0.13400
H1041       H  0.64523464  0.10173983  0.95031979     0.13400
H1042       H  0.62329544  0.99968375  0.04622917     0.26700
H1043       H  0.61097835  0.99977976  0.96300812     0.26700
N1044       N  0.99874786  0.11802415  0.08866268    -0.32000
N1045       N  0.54166528  0.12267723  0.00471963    -0.56600
N1046       N  0.99798834  0.11881898  0.92233396    -0.36100
N1047       N  0.95505568  0.12137427  0.00627394    -0.56600
C1048       C  0.52205062  0.12620235  0.11676680     0.27500
C1049       C  0.97567409  0.12600029  0.11767393     0.27500
C1050       C  0.52099218  0.12697802  0.89328308     0.27500
C1051       C  0.97456346  0.12658340  0.89409215     0.27500
C1052       C  0.55926625  0.12309821  0.04779801     0.36100
C1053       C  0.55886764  0.12365137  0.96110441     0.36100
C1054       C  0.93788246  0.12224707  0.04992751     0.36100
C1055       C  0.93745023  0.12246144  0.96325072     0.36100
C1056       C  0.51381537  0.14033872  0.16303793    -0.21400
C1057       C  0.98429304  0.14020251  0.16362202    -0.21400
C1058       C  0.51221684  0.14085991  0.84710705    -0.21400
C1059       C  0.98268165  0.14064652  0.84765621    -0.21400
C1060       C  0.58721761  0.12664172  0.03169820    -0.22400
C1061       C  0.58695874  0.12700689  0.97646759    -0.22400
C1062       C  0.90985052  0.12611595  0.03472918    -0.22400
C1063       C  0.90956368  0.12622459  0.97952589    -0.22400
C1064       C  0.55044742  0.12083866  0.10160130    -0.17800
C1065       C  0.94714519  0.12054910  0.10350895    -0.17800
C1066       C  0.94616931  0.12097220  0.90929934    -0.17800
C1067       C  0.54960188  0.12186934  0.90748021    -0.17800
H1068       H  0.52765808  0.14999123  0.19281171     0.15100
H1069       H  0.97069507  0.14976097  0.19389744     0.15100
H1070       H  0.52572196  0.15042008  0.81667952     0.15100
H1071       H  0.96875142  0.15004857  0.81774927     0.15100
H1072       H  0.60549557  0.13013788  0.05744643     0.13400
H1073       H  0.60499723  0.13081334  0.95028140     0.13400
H1074       H  0.89193380  0.13022890  0.06103711     0.13400
H1075       H  0.89135672  0.13038529  0.95395163     0.13400
H1076       H  0.99865012  0.10595466  0.05348542     0.26700
H1077       H  0.99828209  0.10686411  0.95762797     0.26700
C1078       C  0.88932356  0.10967953  0.21277277     0.87000
C1079       C  0.87197224  0.09062442  0.17417510    -0.53200
C1080       C  0.88865961  0.07365410  0.14249077     0.09900
C1081       C  0.92099995  0.07751087  0.15248599     0.20900
C1082       C  0.90840123  0.08900675  0.24497219    -0.53900
C1083       C  0.92500277  0.07202012  0.21317589     0.10000
C1084       C  0.90999886  0.12663772  0.17660923    -0.53500
C1085       C  0.92674001  0.10972362  0.14495881     0.10600
H1086       H  0.84876383  0.09020028  0.17273275     0.15100
H1087       H  0.93459620  0.06371842  0.12661382     0.00900
H1088       H  0.90911455  0.08823471  0.28862073     0.15400
H1089       H  0.91095603  0.14978166  0.17541238     0.15200
N1090       N  0.87907538  0.49997109  0.08911879    -0.36100
N1091       N  0.87781712  0.04447912  0.00666615    -0.56600
N1092       N  0.87341440  0.50014015  0.92400912    -0.36100
N1093       N  0.87738168  0.45561485  0.00608633    -0.56600
C1094       C  0.87640399  0.02319638  0.12089239     0.27500
C1095       C  0.87606330  0.47668296  0.12056375     0.27500
C1096       C  0.87415829  0.02350390  0.89219399     0.27500
C1097       C  0.87408134  0.47688088  0.89188587     0.27500
C1098       C  0.87161279  0.06017399  0.05057764     0.36100
C1099       C  0.87042314  0.06024031  0.96345502     0.36100
C1100       C  0.87108472  0.43984430  0.04984392     0.36100
C1101       C  0.87015294  0.43991865  0.96268798     0.36100
C1102       C  0.87107653  0.01461227  0.17308312    -0.21400
C1103       C  0.87087380  0.48515586  0.17287795    -0.21400
C1104       C  0.87299597  0.01501835  0.83912016    -0.21400
C1105       C  0.87296861  0.48555621  0.83891344    -0.21400
C1106       C  0.85913432  0.08564213  0.03541202    -0.22400
C1107       C  0.85847487  0.08572950  0.97988401    -0.22400
C1108       C  0.85869845  0.41436901  0.03437981    -0.22400
C1109       C  0.85820286  0.41437285  0.97882771    -0.22400
C1110       C  0.87763071  0.05190720  0.10388987    -0.17800
C1111       C  0.87701559  0.44801911  0.10326679    -0.17800
C1112       C  0.87529318  0.44808893  0.90897196    -0.17800
C1113       C  0.87547082  0.05222897  0.90963410    -0.17800
H1114       H  0.86627882  0.02824930  0.20698844     0.15100
H1115       H  0.86592937  0.47146506  0.20664038     0.15100
H1116       H  0.87075145  0.02880795  0.80457470     0.15100
H1117       H  0.87067328  0.47190019  0.80419385     0.15100
H1118       H  0.85093246  0.10213360  0.06167087     0.13400
H1119       H  0.84979159  0.10235127  0.95447415     0.13400
H1120       H  0.85043851  0.39782140  0.06045804     0.13400
H1121       H  0.84959134  0.39779788  0.95321683     0.13400
H1122       H  0.88408321  0.49998539  0.04876333     0.26700
H1123       H  0.87332186  0.50009325  0.96532566     0.26700
C1124       C  0.82550880  0.32734606  0.66755273    -0.18000
C1125       C  0.83921608  0.34164158  0.69862999     0.06100
C1126       C  0.85573270  0.35851014  0.73410881     0.07900
C1127       C  0.87006458  0.37302161  0.76381824    -0.18800
C1128       C  0.82423360  0.17176538  0.66855388    -0.18000
C1129       C  0.83855725  0.15838320  0.70011789     0.06100
C1130       C  0.85556832  0.14223681  0.73601168     0.07900
C1131       C  0.87013999  0.12797283  0.76576561    -0.18800
C1132       C  0.67034972  0.32807336  0.66598022    -0.18000
C1133       C  0.65624363  0.34167745  0.69760835     0.06100
C1134       C  0.63946105  0.35824252  0.73329663     0.07900
C1135       C  0.62491850  0.37271402  0.76280296    -0.18800
C1136       C  0.82642754  0.32613507  0.34211430    -0.18000
C1137       C  0.83977879  0.34038924  0.31047116     0.06100
C1138       C  0.85620027  0.35748026  0.27529736     0.07900
C1139       C  0.87072944  0.37224291  0.24642811    -0.18800
C1140       C  0.62528194  0.12710765  0.76321622    -0.18000
C1141       C  0.63965756  0.14184395  0.73387785     0.06100
C1142       C  0.65592422  0.15908967  0.69847585     0.07900
C1143       C  0.66931069  0.17349547  0.66698936    -0.18800
C1144       C  0.62467892  0.37135685  0.24528505    -0.18000
C1145       C  0.63935322  0.35686444  0.27438130     0.06100
C1146       C  0.65679786  0.34064867  0.30929498     0.07900
C1147       C  0.67152727  0.32733012  0.34022214    -0.18800
C1148       C  0.87139232  0.12790902  0.24704101    -0.18000
C1149       C  0.85680129  0.14256814  0.27601332     0.06100
C1150       C  0.83990438  0.15918784  0.31123715     0.07900
C1151       C  0.82567557  0.17271502  0.34268287    -0.18800
C1152       C  0.62573416  0.12744226  0.24569082    -0.18000
C1153       C  0.64036308  0.14208943  0.27457895     0.06100
C1154       C  0.65726157  0.15892352  0.30937918     0.07900
C1155       C  0.67108388  0.17311279  0.34039630    -0.18800
C1156       C  0.68638548  0.68983739  0.37937241     0.43000
N1157       N  0.71412303  0.69974829  0.44513513     0.01900
C1158       C  0.71353282  0.82211667  0.60176961    -0.06000
H1159       H  0.72767323  0.84010038  0.39599342     0.07400
C1160       C  0.82089633  0.78370560  0.40797154    -0.06400
Co1161     Co  0.69555383  0.75246961  0.50341350     0.74200
N1162       N  0.71897067  0.80292110  0.44479267    -0.25500
Co1163     Co  0.75048741  0.80218555  0.50428939     0.74100
C1164       C  0.81128900  0.80982064  0.38191970     0.43100
N1165       N  0.79876848  0.71573993  0.44724111     0.01500
N1166       N  0.78267208  0.79998291  0.44634621     0.01600
N1167       N  0.67773704  0.78956403  0.59958324    -0.46400
H1168       H  0.65811920  0.72908346  0.39532378     0.07400
N1169       N  0.69802632  0.78401065  0.44445596     0.01900
N1170       N  0.78191626  0.80025252  0.56390557     0.01600
C1171       C  0.80999619  0.81047401  0.62904585     0.43200
N1172       N  0.77778643  0.69686660  0.44677223    -0.25000
C1173       C  0.67524127  0.71629683  0.60180117    -0.05900
N1174       N  0.70941747  0.68058399  0.40693167    -0.46100
N1175       N  0.78688860  0.81964984  0.60157578    -0.46300
C1176       C  0.68467504  0.69001190  0.62756493     0.43000
N1177       N  0.69718701  0.78438805  0.56199978     0.01900
N1178       N  0.77698030  0.69676145  0.56403426    -0.25000
N1179       N  0.69512498  0.72059730  0.44486907    -0.25500
N1180       N  0.79788498  0.71571591  0.56478263     0.01500
H1181       H  0.76840954  0.65913654  0.61165013     0.07400
H1182       H  0.83805049  0.77101995  0.61349226     0.07400
N1183       N  0.71819509  0.80323489  0.56216998    -0.25500
N1184       N  0.80176340  0.77921852  0.44730555    -0.25200
N1185       N  0.71323155  0.69982118  0.56283982     0.01900
C1186       C  0.68833270  0.81199792  0.37902766     0.43300
C1187       C  0.78245681  0.67824255  0.40674988    -0.06400
N1188       N  0.80082439  0.77931538  0.56444257    -0.25200
H1189       H  0.83954552  0.77076069  0.39978315     0.07400
N1190       N  0.67896675  0.78891455  0.40611559    -0.46400
H1191       H  0.76938721  0.65986694  0.39735460     0.07400
C1192       C  0.80768533  0.68718747  0.62937857     0.43100
C1193       C  0.67660242  0.71610466  0.40455824    -0.05900
Co1194     Co  0.74546898  0.69770297  0.50470055     0.73800
N1195       N  0.81817206  0.71087448  0.40946053    -0.46100
C1196       C  0.68692963  0.81278776  0.62658810     0.43400
N1197       N  0.70804804  0.68074725  0.60100576    -0.46100
Co1198     Co  0.80039314  0.74744469  0.50601167     0.73900
C1199       C  0.81952179  0.78396448  0.60440043    -0.06400
C1200       C  0.71463410  0.82160241  0.40468989    -0.06000
N1201       N  0.69427146  0.72071670  0.56223341    -0.25500
N1202       N  0.78779253  0.81900340  0.40809690    -0.46300
H1203       H  0.72663302  0.84053047  0.61075262     0.07400
C1204       C  0.78138954  0.67775042  0.60353191    -0.06400
Cl1205     Cl  0.74797469  0.74995300  0.50463871    -0.49400
C1206       C  0.80898649  0.68782501  0.38200809     0.43100
H1207       H  0.65670441  0.72935731  0.61023340     0.07300
N1208       N  0.81698490  0.71053595  0.60295174    -0.46100
C1209       C  0.88782686  0.89088867  0.79910879     0.87000
C1210       C  0.87033624  0.90964078  0.83801076    -0.53200
C1211       C  0.88683712  0.92631909  0.87059788     0.09900
C1212       C  0.91930160  0.92249180  0.86088043     0.20900
C1213       C  0.90706076  0.91176521  0.76784620    -0.53900
C1214       C  0.92360114  0.92843788  0.80026263     0.10000
C1215       C  0.90833276  0.87357461  0.83502091    -0.53500
C1216       C  0.92498901  0.89015798  0.86746702     0.10600
H1217       H  0.84712332  0.91016581  0.83886021     0.15100
H1218       H  0.93283639  0.93604472  0.88730330     0.00900
H1219       H  0.90799279  0.91283798  0.72423128     0.15400
H1220       H  0.90934304  0.85042429  0.83525097     0.15200
C1221       C  0.88796400  0.60990435  0.80063263     0.87000
C1222       C  0.90698525  0.58906688  0.76877276    -0.53200
C1223       C  0.92353307  0.57211971  0.80068462     0.09900
C1224       C  0.91945156  0.57778130  0.86143439     0.20900
C1225       C  0.87049435  0.59105409  0.83940727    -0.53900
C1226       C  0.88700471  0.57410190  0.87145721     0.10000
C1227       C  0.90869049  0.62690846  0.83664169    -0.53500
C1228       C  0.92536130  0.61003710  0.86855727     0.10600
H1229       H  0.90778690  0.58823576  0.72513246     0.15100
H1230       H  0.93298307  0.56401333  0.88746191     0.00900
H1231       H  0.84728139  0.59067009  0.84056220     0.15400
H1232       H  0.90982318  0.65005065  0.83734970     0.15200
C1233       C  0.60686769  0.89057649  0.79774389     0.87000
C1234       C  0.58633483  0.87317713  0.83349503    -0.53200
C1235       C  0.56942874  0.88969596  0.86560194     0.09900
C1236       C  0.57488562  0.92202571  0.85890337     0.20900
C1237       C  0.58760092  0.91133313  0.76612351    -0.53900
C1238       C  0.57084136  0.92795807  0.79830729     0.10000
C1239       C  0.62404285  0.90951157  0.83688642    -0.53500
C1240       C  0.60720676  0.92607610  0.86911004     0.10600
H1241       H  0.58558565  0.85001985  0.83407083     0.15100
H1242       H  0.56116275  0.93550792  0.88511626     0.00900
H1243       H  0.58691099  0.91244339  0.72249992     0.15400
H1244       H  0.64724601  0.91019292  0.83822758     0.15200
C1245       C  0.60712363  0.60932027  0.79809575     0.87000
C1246       C  0.62417359  0.59011145  0.83695664    -0.53200
C1247       C  0.60722540  0.57366178  0.86920567     0.09900
C1248       C  0.57492705  0.57807718  0.85926713     0.20900
C1249       C  0.58757654  0.58885428  0.76646270    -0.53900
C1250       C  0.57069888  0.57235764  0.79864128     0.10000
C1251       C  0.58684714  0.62684890  0.83414059    -0.53500
C1252       C  0.56984243  0.61043917  0.86627153     0.10600
H1253       H  0.64737001  0.58920287  0.83814997     0.15100
H1254       H  0.56111173  0.56467510  0.88546433     0.00900
H1255       H  0.58683651  0.58778749  0.72283711     0.15400
H1256       H  0.58631189  0.65001044  0.83483228     0.15200
N1257       N  0.95308326  0.00030961  0.78545181    -0.36100
N1258       N  0.99728013  0.95687207  0.77715910    -0.56600
N1259       N  0.54110363  0.00018965  0.78225183    -0.36100
N1260       N  0.99710809  0.54363187  0.77715732    -0.56600
C1261       C  0.93811504  0.97715770  0.76954105     0.27500
C1262       C  0.93801564  0.52342049  0.76955436     0.27500
C1263       C  0.55678110  0.97703940  0.76877377     0.27500
C1264       C  0.55668293  0.52339791  0.76886385     0.27500
C1265       C  0.97421384  0.93955875  0.77725064     0.36100
C1266       C  0.52029639  0.93948664  0.77606206     0.36100
C1267       C  0.97407700  0.56099810  0.77703643     0.36100
C1268       C  0.52015852  0.56096335  0.77607880     0.36100
C1269       C  0.91392791  0.98553325  0.74178612    -0.21400
C1270       C  0.91387469  0.51497798  0.74174340    -0.21400
C1271       C  0.58214497  0.98555245  0.74521960    -0.21400
C1272       C  0.58208706  0.51500107  0.74532031    -0.21400
C1273       C  0.98248377  0.91148830  0.77212949    -0.22400
C1274       C  0.51183688  0.91143388  0.77139049    -0.22400
C1275       C  0.98240395  0.58904336  0.77177496    -0.22400
C1276       C  0.51176072  0.58902761  0.77115793    -0.22400
C1277       C  0.94571340  0.94876562  0.78024767    -0.17800
C1278       C  0.94557016  0.55183550  0.78014024    -0.17800
C1279       C  0.54874973  0.55186504  0.77858869    -0.17800
C1280       C  0.54890892  0.94852979  0.77833570    -0.17800
H1281       H  0.89819960  0.97182098  0.72303026     0.15100
H1282       H  0.89810614  0.52864519  0.72299302     0.15100
H1283       H  0.59872710  0.97192735  0.72905226     0.15100
H1284       H  0.59862506  0.52870901  0.72922686     0.15100
H1285       H  0.96860926  0.89332038  0.76632311     0.13400
H1286       H  0.52555019  0.89318517  0.76510798     0.13400
H1287       H  0.96857588  0.60724022  0.76587921     0.13400
H1288       H  0.52552232  0.60724123  0.76485357     0.13400
H1289       H  0.97151637  0.00032091  0.80899336     0.26700
H1290       H  0.52181712  0.00017761  0.80306989     0.26700
C1291       C  0.88870829  0.89034551  0.21207321     0.87000
C1292       C  0.90922071  0.87326544  0.17575856    -0.53200
C1293       C  0.92594420  0.89008205  0.14385953     0.09900
C1294       C  0.92039854  0.92231580  0.15144675     0.20900
C1295       C  0.90795283  0.91095059  0.24407755    -0.53900
C1296       C  0.92458419  0.92783120  0.21213066     0.10000
C1297       C  0.87135478  0.90942179  0.17360325    -0.53500
C1298       C  0.88804600  0.92624583  0.14169561     0.10600
H1299       H  0.91008761  0.85011808  0.17466974     0.15100
H1300       H  0.93398160  0.93604529  0.12542493     0.00900
H1301       H  0.90874930  0.91175719  0.28772032     0.15400
H1302       H  0.84814390  0.90996850  0.17238936     0.15200
C1303       C  0.60715971  0.88971461  0.21053331     0.87000
C1304       C  0.62501762  0.90861335  0.17246742    -0.53200
C1305       C  0.60885621  0.92580298  0.14024427     0.09900
C1306       C  0.57630775  0.92224643  0.14940535     0.20900
C1307       C  0.58801609  0.91051263  0.24224288    -0.53900
C1308       C  0.57182037  0.92772274  0.21015647     0.10000
C1309       C  0.58664402  0.87295951  0.17385227    -0.53500
C1310       C  0.57031673  0.89001152  0.14175968     0.10600
H1311       H  0.64823798  0.90878286  0.17179865     0.15100
H1312       H  0.56302462  0.93615848  0.12320396     0.00900
H1313       H  0.58688880  0.91113915  0.28587026     0.15400
H1314       H  0.58534875  0.84982488  0.17289845     0.15200
N1315       N  0.99790827  0.88186012  0.08769363    -0.36100
N1316       N  0.95433247  0.87827777  0.00517704    -0.56600
N1317       N  0.99742147  0.88121393  0.92135568    -0.36100
N1318       N  0.54097640  0.87768689  0.00391707    -0.56600
C1319       C  0.97482601  0.87378477  0.11659379     0.27500
C1320       C  0.52120504  0.87372213  0.11587425     0.27500
C1321       C  0.97406010  0.87330845  0.89307702     0.27500
C1322       C  0.52049543  0.87312562  0.89242201     0.27500
C1323       C  0.93709082  0.87738823  0.04874900     0.36100
C1324       C  0.93680871  0.87717640  0.96203793     0.36100
C1325       C  0.55850427  0.87710533  0.04708019     0.36100
C1326       C  0.55824508  0.87665646  0.96040690     0.36100
C1327       C  0.98342354  0.85956462  0.16252031    -0.21400
C1328       C  0.51294360  0.85951055  0.16205406    -0.21400
C1329       C  0.98228433  0.85921381  0.84673508    -0.21400
C1330       C  0.51182434  0.85912250  0.84629653    -0.21400
C1331       C  0.90908801  0.87346643  0.03338149    -0.22400
C1332       C  0.90889479  0.87335739  0.97814797    -0.22400
C1333       C  0.58646157  0.87343874  0.03112703    -0.22400
C1334       C  0.58629214  0.87313622  0.97590659    -0.22400
C1335       C  0.94629949  0.87916098  0.10238237    -0.17800
C1336       C  0.54961899  0.87916096  0.10085343    -0.17800
C1337       C  0.54907005  0.87837696  0.90674075    -0.17800
C1338       C  0.94563288  0.87886154  0.90815094    -0.17800
H1339       H  0.96981189  0.84994066  0.19270618     0.15100
H1340       H  0.52676640  0.84984427  0.19183758     0.15100
H1341       H  0.96842204  0.84974919  0.81678161     0.15100
H1342       H  0.52539901  0.84958706  0.81595457     0.15100
H1343       H  0.89112760  0.86936345  0.05959412     0.13400
H1344       H  0.89072254  0.86923961  0.95245088     0.13400
H1345       H  0.60466158  0.86973504  0.05696420     0.13400
H1346       H  0.60433643  0.86918204  0.94981541     0.13400
H1347       H  0.99780525  0.89396084  0.05255183     0.26700
H1348       H  0.99760252  0.89321639  0.95659619     0.26700
C1349       C  0.60799728  0.60931172  0.21098859     0.87000
C1350       C  0.58763611  0.62639599  0.17453665    -0.53200
C1351       C  0.57109608  0.60963153  0.14229952     0.09900
C1352       C  0.57672255  0.57731052  0.14962619     0.20900
C1353       C  0.58865367  0.58861028  0.24255576    -0.53900
C1354       C  0.57222260  0.57167652  0.21033028     0.10000
C1355       C  0.62560811  0.59035538  0.17271593    -0.53500
C1356       C  0.60922567  0.57344991  0.14039976     0.10600
H1357       H  0.58659561  0.64954539  0.17384034     0.15100
H1358       H  0.56328380  0.56361502  0.12329617     0.00900
H1359       H  0.58760983  0.58782005  0.28617921     0.15400
H1360       H  0.64882573  0.58993053  0.17196753     0.15200
N1361       N  0.95436307  0.99987995  0.22855247    -0.36100
N1362       N  0.99850371  0.54318820  0.23398193    -0.56600
N1363       N  0.54241052  0.99973104  0.22554112    -0.36100
N1364       N  0.99823566  0.95640348  0.23360688    -0.56600
C1365       C  0.93893332  0.52304707  0.24280537     0.27500
C1366       C  0.93877688  0.97671086  0.24224923     0.27500
C1367       C  0.55761044  0.52284818  0.24105921     0.27500
C1368       C  0.55745214  0.97653693  0.24108659     0.27500
C1369       C  0.97549265  0.56056561  0.23535012     0.36100
C1370       C  0.52157808  0.56051702  0.23367446     0.36100
C1371       C  0.97515639  0.93909666  0.23452795     0.36100
C1372       C  0.52124593  0.93900396  0.23351621     0.36100
C1373       C  0.91371639  0.51459718  0.26700624    -0.21400
C1374       C  0.91361722  0.98514875  0.26666100    -0.21400
C1375       C  0.58190915  0.51435449  0.26830934    -0.21400
C1376       C  0.58178435  0.98489859  0.26838291    -0.21400
C1377       C  0.98396381  0.58862412  0.23992800    -0.22400
C1378       C  0.51331314  0.58858458  0.23887742    -0.22400
C1379       C  0.98350770  0.91100718  0.23908908    -0.22400
C1380       C  0.51286126  0.91095374  0.23848089    -0.22400
C1381       C  0.94687132  0.55153543  0.23343568    -0.17800
C1382       C  0.94657786  0.94823869  0.23232661    -0.17800
C1383       C  0.54978874  0.94811831  0.23048440    -0.17800
C1384       C  0.55008490  0.55130922  0.23048165    -0.17800
H1385       H  0.89734805  0.52826774  0.28380825     0.15100
H1386       H  0.89717288  0.97146865  0.28318036     0.15100
H1387       H  0.59779144  0.52799937  0.28677747     0.15100
H1388       H  0.59757860  0.97116592  0.28688240     0.15100
H1389       H  0.97026984  0.60688181  0.24630213     0.13400
H1390       H  0.52718660  0.60676715  0.24454050     0.13400
H1391       H  0.96972248  0.89279125  0.24519932     0.13400
H1392       H  0.52664646  0.89270918  0.24418276     0.13400
H1393       H  0.97350159  0.99989382  0.20722490     0.26700
H1394       H  0.52385649  0.99977771  0.20235126     0.26700
N1395       N  0.62310952  0.49963984  0.08757644    -0.36100
N1396       N  0.61813847  0.95525222  0.00526119    -0.56600
N1397       N  0.61620291  0.49981654  0.92266091    -0.36100
N1398       N  0.61794879  0.54423880  0.00528038    -0.56600
C1399       C  0.62228950  0.97631854  0.11956901     0.27500
C1400       C  0.62238174  0.52293835  0.11958105     0.27500
C1401       C  0.61919225  0.97656384  0.89106519     0.27500
C1402       C  0.61914256  0.52309929  0.89107230     0.27500
C1403       C  0.62576612  0.93955038  0.04841897     0.36100
C1404       C  0.62421156  0.93954442  0.96129383     0.36100
C1405       C  0.62577638  0.55979416  0.04848138     0.36100
C1406       C  0.62405209  0.56001538  0.96140361     0.36100
C1407       C  0.62342868  0.98488201  0.17259849    -0.21400
C1408       C  0.62355851  0.51434977  0.17260148    -0.21400
C1409       C  0.62467986  0.98513046  0.83893690    -0.21400
C1410       C  0.62468673  0.51457868  0.83894639    -0.21400
C1411       C  0.63774873  0.91409027  0.03191025    -0.22400
C1412       C  0.63685781  0.91413211  0.97637383    -0.22400
C1413       C  0.63788120  0.58522369  0.03209385    -0.22400
C1414       C  0.63689387  0.58531197  0.97657596    -0.22400
C1415       C  0.62082012  0.94757396  0.10226027    -0.17800
C1416       C  0.62094974  0.55168331  0.10229274    -0.17800
C1417       C  0.61793517  0.55181884  0.90807555    -0.17800
C1418       C  0.61805939  0.94782645  0.90800353    -0.17800
H1419       H  0.62564018  0.97113703  0.20721534     0.15100
H1420       H  0.62584819  0.52807274  0.20723044     0.15100
H1421       H  0.62974321  0.97149103  0.80517727     0.15100
H1422       H  0.62975010  0.52824721  0.80522569     0.15100
H1423       H  0.64659292  0.89752301  0.05726252     0.13400
H1424       H  0.64506375  0.89767492  0.95004507     0.13400
H1425       H  0.64692250  0.60165573  0.05751525     0.13400
H1426       H  0.64523129  0.60173624  0.95031272     0.13400
H1427       H  0.62321808  0.49968531  0.04622242     0.26700
H1428       H  0.61098023  0.49978019  0.96297908     0.26700
N1429       N  0.99875785  0.61802962  0.08868034    -0.32000
N1430       N  0.54167666  0.62270313  0.00473919    -0.56600
N1431       N  0.99799340  0.61881189  0.92235499    -0.36100
N1432       N  0.95506037  0.62135969  0.00628364    -0.56600
C1433       C  0.52206174  0.62620802  0.11678307     0.27500
C1434       C  0.97568110  0.62600176  0.11768784     0.27500
C1435       C  0.52099624  0.62697800  0.89330116     0.27500
C1436       C  0.97456650  0.62657043  0.89411063     0.27500
C1437       C  0.55927903  0.62312486  0.04781599     0.36100
C1438       C  0.55887700  0.62367504  0.96112070     0.36100
C1439       C  0.93788879  0.62223768  0.04993792     0.36100
C1440       C  0.93745328  0.62243976  0.96326180     0.36100
C1441       C  0.51382319  0.64034822  0.16304761    -0.21400
C1442       C  0.98429633  0.64020452  0.16363816    -0.21400
C1443       C  0.51221787  0.64084622  0.84711323    -0.21400
C1444       C  0.98268165  0.64064006  0.84768086    -0.21400
C1445       C  0.58722986  0.62666952  0.03171236    -0.22400
C1446       C  0.58696884  0.62703251  0.97648040    -0.22400
C1447       C  0.90985562  0.62610154  0.03474095    -0.22400
C1448       C  0.90956698  0.62620305  0.97953780    -0.22400
C1449       C  0.55046085  0.62085235  0.10161866    -0.17800
C1450       C  0.94715257  0.62054720  0.10351874    -0.17800
C1451       C  0.94617277  0.62095160  0.90931079    -0.17800
C1452       C  0.54960837  0.62187779  0.90749821    -0.17800
H1453       H  0.52766388  0.65000658  0.19281811     0.15100
H1454       H  0.97069555  0.64976061  0.19391186     0.15100
H1455       H  0.52572110  0.65040232  0.81667844     0.15100
H1456       H  0.96874930  0.65004046  0.81777560     0.15100
H1457       H  0.60550971  0.63016121  0.05745836     0.13400
H1458       H  0.60500740  0.63083271  0.95029092     0.13400
H1459       H  0.89193899  0.63021551  0.06104905     0.13400
H1460       H  0.89135950  0.63036170  0.95396388     0.13400
H1461       H  0.99866363  0.60596160  0.05350130     0.26700
H1462       H  0.99829141  0.60685523  0.95764709     0.26700
C1463       C  0.88932350  0.60967612  0.21276542     0.87000
C1464       C  0.87197477  0.59062329  0.17415894    -0.53200
C1465       C  0.88866366  0.57365424  0.14247492     0.09900
C1466       C  0.92100382  0.57750953  0.15248015     0.20900
C1467       C  0.90839955  0.58900113  0.24496529    -0.53900
C1468       C  0.92500445  0.57201689  0.21316907     0.10000
C1469       C  0.91000229  0.62663526  0.17661065    -0.53500
C1470       C  0.92674617  0.60972189  0.14496399     0.10600
H1471       H  0.84876644  0.59019955  0.17271097     0.15100
H1472       H  0.93460151  0.56371833  0.12660810     0.00900
H1473       H  0.90911110  0.58822776  0.28861370     0.15400
H1474       H  0.91095984  0.64977920  0.17541638     0.15200
N1475       N  0.87908081  0.99997078  0.08913928    -0.36100
N1476       N  0.87782907  0.54447920  0.00664612    -0.56600
N1477       N  0.87340962  0.00014144  0.92403253    -0.36100
N1478       N  0.87737239  0.95561573  0.00610687    -0.56600
C1479       C  0.87640482  0.52319684  0.12087285     0.27500
C1480       C  0.87606124  0.97668278  0.12058294     0.27500
C1481       C  0.87417422  0.52350130  0.89217193     0.27500
C1482       C  0.87406867  0.97688105  0.89190813     0.27500
C1483       C  0.87161991  0.56017349  0.05055645     0.36100
C1484       C  0.87042558  0.56023534  0.96343448     0.36100
C1485       C  0.87107642  0.93984452  0.04986353     0.36100
C1486       C  0.87015397  0.93991579  0.96270731     0.36100
C1487       C  0.87108500  0.51461260  0.17306610    -0.21400
C1488       C  0.87086458  0.98515558  0.17289476    -0.21400
C1489       C  0.87302999  0.51501668  0.83909565    -0.21400
C1490       C  0.87293680  0.98555711  0.83893815    -0.21400
C1491       C  0.85913186  0.58563672  0.03538891    -0.22400
C1492       C  0.85846883  0.58572092  0.97986117    -0.22400
C1493       C  0.85869825  0.91436563  0.03439819    -0.22400
C1494       C  0.85820927  0.91436715  0.97884585    -0.22400
C1495       C  0.87763565  0.55190762  0.10387039    -0.17800
C1496       C  0.87700799  0.94801898  0.10328556    -0.17800
C1497       C  0.87529511  0.94808763  0.90899179    -0.17800
C1498       C  0.87547485  0.55222470  0.90961466    -0.17800
H1499       H  0.86629363  0.52824969  0.20697426     0.15100
H1500       H  0.86591316  0.97146497  0.20665412     0.15100
H1501       H  0.87079552  0.52880646  0.80454824     0.15100
H1502       H  0.87063325  0.97190086  0.80422079     0.15100
H1503       H  0.85092547  0.60212663  0.06164611     0.13400
H1504       H  0.84977927  0.60233889  0.95444990     0.13400
H1505       H  0.85044050  0.89781659  0.06047583     0.13400
H1506       H  0.84960406  0.89778939  0.95323410     0.13400
H1507       H  0.88409432  0.99998532  0.04878653     0.26700
H1508       H  0.87333658  0.00009416  0.96534774     0.26700
C1509       C  0.82549162  0.82734460  0.66757939    -0.18000
C1510       C  0.83920419  0.84164690  0.69863901     0.06100
C1511       C  0.85572768  0.85851886  0.73410371     0.07900
C1512       C  0.87006342  0.87302886  0.76381093    -0.18800
C1513       C  0.82424710  0.67175967  0.66852940    -0.18000
C1514       C  0.83856567  0.65838452  0.70011150     0.06100
C1515       C  0.85557019  0.64224214  0.73602142     0.07900
C1516       C  0.87013942  0.62797807  0.76577862    -0.18800
C1517       C  0.67034391  0.82809424  0.66595589    -0.18000
C1518       C  0.65624609  0.84169324  0.69760213     0.06100
C1519       C  0.63947221  0.85825119  0.73331219     0.07900
C1520       C  0.62493188  0.87271873  0.76282661    -0.18800
C1521       C  0.82643803  0.82615288  0.34216489    -0.18000
C1522       C  0.83978922  0.84040359  0.31051839     0.06100
C1523       C  0.85620817  0.85748581  0.27532871     0.07900
C1524       C  0.87073409  0.87224145  0.24644299    -0.18800
C1525       C  0.62526983  0.62710941  0.76319183    -0.18000
C1526       C  0.63964564  0.64184853  0.73385713     0.06100
C1527       C  0.65591764  0.65910046  0.69847176     0.07900
C1528       C  0.66931023  0.67351119  0.66700078    -0.18800
C1529       C  0.62466233  0.87134927  0.24527894    -0.18000
C1530       C  0.63934380  0.85686486  0.27437681     0.06100
C1531       C  0.65679993  0.84066172  0.30929176     0.07900
C1532       C  0.67153509  0.82734895  0.34021872    -0.18800
C1533       C  0.87138906  0.62790628  0.24703054    -0.18000
C1534       C  0.85679503  0.64256923  0.27599308     0.06100
C1535       C  0.83989509  0.65919499  0.31120581     0.07900
C1536       C  0.82566540  0.67272579  0.34264726    -0.18800
C1537       C  0.62574857  0.62743718  0.24570827    -0.18000
C1538       C  0.64037115  0.64209107  0.27459465     0.06100
C1539       C  0.65726136  0.65893632  0.30938768     0.07900
C1540       C  0.67108019  0.67313177  0.34039858    -0.18800
loop_ 
_geom_bond_atom_site_label_1 
_geom_bond_atom_site_label_2 
_geom_bond_distance 
_geom_bond_site_symmetry_2 
_ccdc_geom_bond_type 
C1           N19   1.348       .  A
C1           C38   1.455       .  S
C1          C385   1.437       .  S
N2           N19   1.325       .  A
N2           N24   1.321       .  A
N2          Co39   2.086       .  S
C3           N28   1.341       .  A
C3           C41   1.456       .  S
C3           H48   1.081       .  S
H4           C45   1.082       .  S
C5           N29   1.342       .  A
C5            C9   1.456       .  S
C5           H34   1.082       .  S
Co6          N24   2.086       .  S
Co6          N14   2.084       .  S
Co6          N46   2.087       .  S
Co6          N22   2.089       .  S
Co6         Cl50   2.454       .  S
N7           C45   1.342       .  A
N7           N14   1.321       .  A
N7           Co8   2.088       .  S
Co8          N11   2.086       .  S
Co8          N28   2.086       .  S
Co8          N15   2.089       .  S
Co8         Cl50   2.451       .  S
C9           N47   1.347       .  A
C9          C366   1.437       .  S
N10          N17   1.321       .  A
N10          N40   1.325       .  A
N10         Co43   2.085       .  S
N11          N29   1.321       .  A
N11          N47   1.325       .  A
N12          C41   1.349       .  A
N12          N22   1.326       .  A
H13          C38   1.081       .  S
N14          N35   1.325       .  A
N15          N33   1.321       .  A
N15          N20   1.326       .  A
C16          N20   1.349       .  A
C16          C44   1.455       .  S
C16         C354   1.438       .  S
N17          C32   1.341       .  A
N17         Co39   2.087       .  S
C18          N46   1.342       .  A
C18          C21   1.457       .  S
C18          H52   1.082       .  S
C21          N42   1.349       .  A
C21         C373   1.440       .  S
N22          N28   1.321       .  A
N23          C49   1.342       .  A
N23          N25   1.321       .  A
N23         Co39   2.085       .  S
N24          C38   1.341       .  A
N25          N53   1.325       .  A
N25         Co43   2.088       .  S
H26          C49   1.082       .  S
H27          C44   1.082       .  S
N29         Co43   2.086       .  S
N30          N42   1.326       .  A
N30          N46   1.321       .  A
N30         Co39   2.090       .  S
C31          N35   1.347       .  A
C31          C45   1.457       .  S
C31         C377   1.437       .  S
C32          C51   1.455       .  S
C32          H36   1.081       .  S
N33          C44   1.341       .  A
N33         Co43   2.083       .  S
C37          N53   1.348       .  A
C37          C49   1.456       .  S
C37         C358   1.439       .  S
Co39        Cl50   2.451       .  S
N40          C51   1.348       .  A
C41         C362   1.440       .  S
Co43        Cl50   2.454       .  S
C51         C381   1.437       .  S
C54          C55   1.541       .  S
C54          C60   1.541       .  S
C54          C58   1.539       .  S
C54         C357   1.470       .  S
C55          H62   1.086       .  S
C55          C56   1.365       .  D
C56          C57   1.547       .  S
C56         C342   1.497       .  S
C57          C61   1.547       .  S
C57          C59   1.545       .  S
C57          H63   1.111       .  S
C58          H64   1.086       .  S
C58          C59   1.363       .  D
C59         C122   1.491       .  S
C60          H65   1.086       .  S
C60          C61   1.364       .  D
C61         C183   1.495       .  S
C66          C67   1.540       .  S
C66          C72   1.541       .  S
C66          C70   1.541       .  S
C66         C361   1.471       .  S
C67          H74   1.086       .  S
C67          C68   1.363       .  D
C68          C69   1.545       .  S
C68         C123   1.492       .  S
C69          C73   1.547       .  S
C69          C71   1.547       .  S
C69          H75   1.111       .  S
C70          H76   1.086       .  S
C70          C71   1.364       .  D
C71         C343   1.497       .  S
C72          H77   1.086       .  S
C72          C73   1.365       .  D
C73         C296   1.495       .  S
C78          C79   1.541       .  S
C78          C84   1.542       .  S
C78          C82   1.541       .  S
C78         C365   1.472       .  S
C79          H86   1.086       .  S
C79          C80   1.364       .  D
C80          C81   1.545       .  S
C80         C182   1.494       .  S
C81          C85   1.544       .  S
C81          C83   1.543       .  S
C81          H87   1.112       .  S
C82          H88   1.086       .  S
C82          C83   1.364       .  D
C83         C125   1.493       .  S
C84          H89   1.086       .  S
C84          C85   1.365       .  D
C85         C263   1.494       .  S
C90          C91   1.542       .  S
C90          C96   1.542       .  S
C90          C94   1.541       .  S
C90         C370   1.472       .  S
C91          H98   1.086       .  S
C91          C92   1.365       .  D
C92          C93   1.544       .  S
C92         C262   1.494       .  S
C93          C97   1.545       .  S
C93          C95   1.543       .  S
C93          H99   1.112       .  S
C94         H100   1.086       .  S
C94          C95   1.364       .  D
C95         C124   1.491       .  S
C96         H101   1.086       .  S
C96          C97   1.364       .  D
C97         C297   1.494       .  S
N102        C106   1.350       .  A
N102        C492   1.351       .  A
N102        H134   1.042       .  S
N103        C110   1.350       .  A
N103        C881   1.350       .  A
N104        C108   1.352       .  A
N104        C494   1.351       .  A
N104        H135   1.040       .  S
N105        C112   1.350       .  A
N105        C883   1.350       .  A
C106        C114   1.382       .  A
C106        C122   1.403       .  A
C107        N487   1.351       .  A
C107        C123   1.403       .  A
C107        C115   1.381       .  A
C108        C116   1.381       .  A
C108        C125   1.406       .  A
C109        N489   1.351       .  A
C109        C124   1.406       .  A
C109        C117   1.381       .  A
C110        C122   1.403       .  A
C110        C118   1.377       .  A
C111        N873   1.350   1_455  A
C111        C125   1.404       .  A
C111        C119   1.378       .  A
C112        C120   1.377       .  A
C112        C123   1.402       .  A
C113        N875   1.350   1_455  A
C113        C121   1.378       .  A
C113        C124   1.405       .  A
C114        H126   1.082       .  S
C114        C500   1.380       .  A
C115        H127   1.082       .  S
C115        C499   1.380   1_545  A
C116        H128   1.082       .  S
C116        C502   1.380       .  A
C117        H129   1.082       .  S
C117        C501   1.380   1_545  A
C118        H130   1.080       .  S
C118        C889   1.373       .  A
C119        H131   1.080       .  S
C119        C888   1.373   1_455  A
C120        H132   1.080       .  S
C120        C891   1.373       .  A
C121        H133   1.080       .  S
C121        C890   1.373   1_455  A
C136        C137   1.541       .  S
C136        C142   1.540       .  S
C136        C140   1.541       .  S
C136        C369   1.468       .  S
C137        H144   1.086       .  S
C137        C138   1.364       .  D
C138        C139   1.544       .  S
C138        C180   1.493       .  S
C139        C143   1.543       .  S
C139        C141   1.543       .  S
C139        H145   1.112       .  S
C140        H146   1.086       .  S
C140        C141   1.364       .  D
C141        C227   1.491       .  S
C142        H147   1.086       .  S
C142        C143   1.364       .  D
C143        C341   1.490       .  S
C148        C149   1.542       .  S
C148        C154   1.539       .  S
C148        C152   1.540       .  S
C148        C374   1.468       .  S
C149        H156   1.086       .  S
C149        C150   1.364       .  D
C150        C151   1.548       .  S
C150        C260   1.498       .  S
C151        C155   1.548       .  S
C151        C153   1.546       .  S
C151        H157   1.111       .  S
C152        H158   1.086       .  S
C152        C153   1.364       .  D
C153        C228   1.493       .  S
C154        H159   1.086       .  S
C154        C155   1.363       .  D
C155        C181   1.493       .  S
N160        C164   1.350       .  A
N160        C935   1.350       .  A
N160        H192   1.041       .  S
N161        C168   1.351       .  A
N161        C169   1.350   1_554  A
N162        C166   1.351       .  A
N162        C937   1.351       .  A
N162        H193   1.041       .  S
N163        C170   1.350       .  A
N163        C171   1.350   1_554  A
C164        C172   1.382       .  A
C164        C180   1.403       .  A
C165        N930   1.350   1_455  A
C165        C181   1.403       .  A
C165        C173   1.382       .  A
C166        C174   1.382       .  A
C166        C183   1.405       .  A
C167        N932   1.351   1_455  A
C167        C182   1.404       .  A
C167        C175   1.382       .  A
C168        C180   1.403       .  A
C168        C176   1.376       .  A
C169        C183   1.404       .  A
C169        C177   1.377       .  A
C170        C178   1.377       .  A
C170        C181   1.403       .  A
C171        C179   1.377       .  A
C171        C182   1.403       .  A
C172        H184   1.082       .  S
C172        C943   1.380       .  A
C173        H185   1.082       .  S
C173        C942   1.380   1_455  A
C174        H186   1.082       .  S
C174        C945   1.381       .  A
C175        H187   1.082       .  S
C175        C944   1.381   1_455  A
C176        H188   1.080       .  S
C176        C177   1.373   1_554  A
C177        H189   1.080       .  S
C178        H190   1.080       .  S
C178        C179   1.373   1_554  A
C179        H191   1.080       .  S
C194        C195   1.539       .  S
C194        C200   1.540       .  S
C194        C198   1.541       .  S
C194        C382   1.468       .  S
C195        H202   1.086       .  S
C195        C196   1.363       .  D
C196        C197   1.548       .  S
C196        C294   1.493       .  S
C197        C201   1.548       .  S
C197        C199   1.546       .  S
C197        H203   1.111       .  S
C198        H204   1.086       .  S
C198        C199   1.364       .  D
C199        C229   1.494       .  S
C200        H205   1.086       .  S
C200        C201   1.364       .  D
C201        C261   1.496       .  S
N206        C211   1.351       .  A
N206        C595   1.351       .  A
N206        H238   1.040       .  S
N207        C214   1.350       .  A
N207        C985   1.350       .  A
N208        C213   1.351       .  A
N208        C597   1.351       .  A
N208        H239   1.042       .  S
N209        C216   1.350       .  A
N209        C987   1.350       .  A
C210        N591   1.351   1_545  A
C210        C218   1.382       .  A
C210        C226   1.405       .  A
C211        C227   1.405       .  A
C211        C219   1.381       .  A
C212        N593   1.351   1_545  A
C212        C220   1.381       .  A
C212        C229   1.404       .  A
C213        C228   1.404       .  A
C213        C221   1.381       .  A
C214        C226   1.404       .  A
C214        C222   1.378       .  A
C215        N977   1.350   1_455  A
C215        C229   1.403       .  A
C215        C223   1.377       .  A
C216        C224   1.378       .  A
C216        C227   1.404       .  A
C217        N979   1.350   1_455  A
C217        C225   1.377       .  A
C217        C228   1.403       .  A
C218        H230   1.082       .  S
C218        C604   1.380   1_545  A
C219        H231   1.082       .  S
C219        C603   1.380       .  A
C220        H232   1.082       .  S
C220        C606   1.380   1_545  A
C221        H233   1.082       .  S
C221        C605   1.380       .  A
C222        H234   1.080       .  S
C222        C993   1.373       .  A
C223        H235   1.080       .  S
C223        C992   1.373   1_455  A
C224        H236   1.080       .  S
C224        C995   1.373       .  A
C225        H237   1.080       .  S
C225        C994   1.373   1_455  A
C226        C313   1.490       .  S
N240        C245   1.351   1_565  A
N240        C629   1.352       .  A
N240        H272   1.028       .  S
N241        C248   1.349       .  A
N241        C249   1.348   1_554  A
N242        C247   1.351   1_565  A
N242        C631   1.351       .  A
N242        H273   1.031       .  S
N243        C250   1.348       .  A
N243        C251   1.348   1_554  A
C244        N625   1.352       .  A
C244        C252   1.379       .  A
C244        C260   1.416       .  A
C245        C261   1.416       .  A
C245        C253   1.379       .  A
C246        N627   1.351       .  A
C246        C254   1.380       .  A
C246        C263   1.412       .  A
C247        C262   1.412       .  A
C247        C255   1.380       .  A
C248        C260   1.409       .  A
C248        C256   1.381       .  A
C249        C263   1.410       .  A
C249        C257   1.382       .  A
C250        C258   1.381       .  A
C250        C261   1.409       .  A
C251        C259   1.381       .  A
C251        C262   1.409       .  A
C252        H264   1.080       .  S
C252        C638   1.381       .  A
C253        H265   1.080       .  S
C253        C637   1.381   1_545  A
C254        H266   1.081       .  S
C254        C640   1.380       .  A
C255        H267   1.081       .  S
C255        C639   1.380   1_545  A
C256        H268   1.082       .  S
C256        C257   1.381   1_554  A
C257        H269   1.082       .  S
C258        H270   1.082       .  S
C258        C259   1.381   1_554  A
C259        H271   1.082       .  S
N274        C279   1.350       .  A
N274       C1048   1.350       .  A
N274        H306   1.041       .  S
N275        C282   1.351       .  A
N275        C283   1.351   1_554  A
N276        C281   1.351       .  A
N276       C1050   1.351       .  A
N276        H307   1.041       .  S
N277        C284   1.350       .  A
N277        C285   1.350   1_554  A
C278       N1044   1.350   1_455  A
C278        C286   1.382       .  A
C278        C294   1.403       .  A
C279        C295   1.403       .  A
C279        C287   1.382       .  A
C280       N1046   1.351   1_455  A
C280        C288   1.382       .  A
C280        C297   1.404       .  A
C281        C296   1.405       .  A
C281        C289   1.382       .  A
C282        C294   1.403       .  A
C282        C290   1.377       .  A
C283        C297   1.404       .  A
C283        C291   1.377       .  A
C284        C292   1.376       .  A
C284        C295   1.403       .  A
C285        C293   1.377       .  A
C285        C296   1.403       .  A
C286        H298   1.082       .  S
C286       C1057   1.381   1_455  A
C287        H299   1.082       .  S
C287       C1056   1.381       .  A
C288        H300   1.082       .  S
C288       C1059   1.381   1_455  A
C289        H301   1.082       .  S
C289       C1058   1.381       .  A
C290        H302   1.080       .  S
C290        C291   1.373   1_554  A
C291        H303   1.080       .  S
C292        H304   1.080       .  S
C292        C293   1.372   1_554  A
C293        H305   1.080       .  S
C295        C315   1.493       .  S
C308        C309   1.541       .  S
C308        C314   1.541       .  S
C308        C312   1.541       .  S
C308        C378   1.469       .  S
C309        H316   1.086       .  S
C309        C310   1.364       .  D
C310        C311   1.543       .  S
C310        C340   1.492       .  S
C311        C315   1.545       .  S
C311        C313   1.542       .  S
C311        H317   1.112       .  S
C312        H318   1.086       .  S
C312        C313   1.364       .  D
C314        H319   1.086       .  S
C314        C315   1.364       .  D
N320        C325   1.350       .  A
N320        C709   1.350       .  A
N320        H352   1.030       .  S
N321        C328   1.348       .  A
N321        C329   1.349   1_554  A
N322        C327   1.352       .  A
N322        C711   1.351       .  A
N322        H353   1.027       .  S
N323        C330   1.347       .  A
N323        C331   1.349   1_554  A
C324        N705   1.350   1_545  A
C324        C332   1.381       .  A
C324        C340   1.411       .  A
C325        C341   1.411       .  A
C325        C333   1.381       .  A
C326        N707   1.351       .  A
C326        C334   1.379       .  A
C326        C343   1.416       .  A
C327        C342   1.416       .  A
C327        C335   1.379       .  A
C328        C340   1.409       .  A
C328        C336   1.381       .  A
C329        C343   1.409       .  A
C329        C337   1.381       .  A
C330        C338   1.381       .  A
C330        C341   1.410       .  A
C331        C339   1.381       .  A
C331        C342   1.410       .  A
C332        H344   1.081       .  S
C332        C718   1.381   1_545  A
C333        H345   1.081       .  S
C333        C717   1.381       .  A
C334        H346   1.080       .  S
C334        C720   1.381   1_545  A
C335        H347   1.080       .  S
C335        C719   1.381       .  A
C336        H348   1.082       .  S
C336        C337   1.380   1_554  A
C337        H349   1.082       .  S
C338        H350   1.082       .  S
C338        C339   1.381   1_554  A
C339        H351   1.082       .  S
C354        C355   1.207       .  T
C355        C356   1.414       .  S
C356        C357   1.207       .  T
C358        C359   1.207       .  T
C359        C360   1.415       .  S
C360        C361   1.207       .  T
C362        C363   1.208       .  T
C363        C364   1.416       .  S
C364        C365   1.208       .  T
C366        C367   1.206       .  T
C367        C368   1.412       .  S
C368        C369   1.206       .  T
C370        C371   1.208       .  T
C371        C372   1.416       .  S
C372        C373   1.208       .  T
C374        C375   1.206       .  T
C375        C376   1.413       .  S
C376        C377   1.206       .  T
C378        C379   1.207       .  T
C379        C380   1.413       .  S
C380        C381   1.206       .  T
C382        C383   1.206       .  T
C383        C384   1.412       .  S
C384        C385   1.206       .  T
C386        N404   1.348       .  A
C386        C423   1.455       .  S
C386        C770   1.436       .  S
N387        N404   1.325       .  A
N387        N409   1.321       .  A
N387       Co424   2.085       .  S
C388        N413   1.341       .  A
C388        C426   1.456       .  S
C388        H433   1.081       .  S
H389        C430   1.082       .  S
C390        N414   1.342       .  A
C390        C394   1.456       .  S
C390        H419   1.082       .  S
Co391       N409   2.085       .  S
Co391       N399   2.085       .  S
Co391       N431   2.087       .  S
Co391       N407   2.089       .  S
Co391      Cl435   2.454       .  S
N392        C430   1.342       .  A
N392        N399   1.321       .  A
N392       Co393   2.088       .  S
Co393       N396   2.085       .  S
Co393       N413   2.086       .  S
Co393       N400   2.089       .  S
Co393      Cl435   2.451       .  S
C394        N432   1.347       .  A
C394        C751   1.437       .  S
N395        N402   1.321       .  A
N395        N425   1.325       .  A
N395       Co428   2.085       .  S
N396        N414   1.321       .  A
N396        N432   1.325       .  A
N397        C426   1.349       .  A
N397        N407   1.326       .  A
H398        C423   1.081       .  S
N399        N420   1.325       .  A
N400        N418   1.321       .  A
N400        N405   1.326       .  A
C401        N405   1.349       .  A
C401        C429   1.455       .  S
C401        C739   1.438       .  S
N402        C417   1.341       .  A
N402       Co424   2.087       .  S
C403        N431   1.342       .  A
C403        C406   1.457       .  S
C403        H437   1.082       .  S
C406        N427   1.349       .  A
C406        C758   1.440       .  S
N407        N413   1.321       .  A
N408        C434   1.342       .  A
N408        N410   1.321       .  A
N408       Co424   2.085       .  S
N409        C423   1.341       .  A
N410        N438   1.325       .  A
N410       Co428   2.088       .  S
H411        C434   1.082       .  S
H412        C429   1.082       .  S
N414       Co428   2.086       .  S
N415        N427   1.326       .  A
N415        N431   1.321       .  A
N415       Co424   2.090       .  S
C416        N420   1.347       .  A
C416        C430   1.457       .  S
C416        C762   1.437       .  S
C417        C436   1.455       .  S
C417        H421   1.081       .  S
N418        C429   1.341       .  A
N418       Co428   2.083       .  S
C422        N438   1.348       .  A
C422        C434   1.456       .  S
C422        C743   1.439       .  S
Co424      Cl435   2.451       .  S
N425        C436   1.348       .  A
C426        C747   1.440       .  S
Co428      Cl435   2.454       .  S
C436        C766   1.437       .  S
C439        C440   1.541       .  S
C439        C445   1.541       .  S
C439        C443   1.539       .  S
C439        C742   1.470       .  S
C440        H447   1.086       .  S
C440        C441   1.365       .  D
C441        C442   1.547       .  S
C441        C727   1.498       .  S
C442        C446   1.547       .  S
C442        C444   1.545       .  S
C442        H448   1.111       .  S
C443        H449   1.086       .  S
C443        C444   1.363       .  D
C444        C507   1.491       .  S
C445        H450   1.086       .  S
C445        C446   1.364       .  D
C446        C568   1.495       .  S
C451        C452   1.540       .  S
C451        C457   1.541       .  S
C451        C455   1.541       .  S
C451        C746   1.471       .  S
C452        H459   1.086       .  S
C452        C453   1.363       .  D
C453        C454   1.545       .  S
C453        C508   1.492       .  S
C454        C458   1.547       .  S
C454        C456   1.547       .  S
C454        H460   1.111       .  S
C455        H461   1.086       .  S
C455        C456   1.364       .  D
C456        C728   1.497       .  S
C457        H462   1.086       .  S
C457        C458   1.365       .  D
C458        C681   1.495       .  S
C463        C464   1.541       .  S
C463        C469   1.542       .  S
C463        C467   1.541       .  S
C463        C750   1.472       .  S
C464        H471   1.086       .  S
C464        C465   1.364       .  D
C465        C466   1.545       .  S
C465        C567   1.494       .  S
C466        C470   1.544       .  S
C466        C468   1.543       .  S
C466        H472   1.112       .  S
C467        H473   1.086       .  S
C467        C468   1.364       .  D
C468        C510   1.493       .  S
C469        H474   1.086       .  S
C469        C470   1.365       .  D
C470        C648   1.494       .  S
C475        C476   1.542       .  S
C475        C481   1.542       .  S
C475        C479   1.541       .  S
C475        C755   1.472       .  S
C476        H483   1.086       .  S
C476        C477   1.365       .  D
C477        C478   1.544       .  S
C477        C647   1.494       .  S
C478        C482   1.545       .  S
C478        C480   1.543       .  S
C478        H484   1.112       .  S
C479        H485   1.086       .  S
C479        C480   1.364       .  D
C480        C509   1.491       .  S
C481        H486   1.086       .  S
C481        C482   1.364       .  D
C482        C682   1.494       .  S
N487        C491   1.350   1_545  A
N487        H519   1.042       .  S
N488        C495   1.350       .  A
N488       C1266   1.350       .  A
N489        C493   1.352   1_545  A
N489        H520   1.040       .  S
N490        C497   1.350       .  A
N490       C1268   1.350       .  A
C491        C499   1.382       .  A
C491        C507   1.403       .  A
C492        C508   1.403       .  A
C492        C500   1.381       .  A
C493        C501   1.381       .  A
C493        C510   1.406       .  A
C494        C509   1.406       .  A
C494        C502   1.381       .  A
C495        C507   1.403       .  A
C495        C503   1.377       .  A
C496       N1258   1.350   1_455  A
C496        C510   1.404       .  A
C496        C504   1.378       .  A
C497        C505   1.377       .  A
C497        C508   1.402       .  A
C498       N1260   1.350   1_455  A
C498        C506   1.378       .  A
C498        C509   1.405       .  A
C499        H511   1.082       .  S
C500        H512   1.082       .  S
C501        H513   1.082       .  S
C502        H514   1.082       .  S
C503        H515   1.080       .  S
C503       C1274   1.373       .  A
C504        H516   1.080       .  S
C504       C1273   1.373   1_455  A
C505        H517   1.080       .  S
C505       C1276   1.373       .  A
C506        H518   1.080       .  S
C506       C1275   1.373   1_455  A
C521        C522   1.541       .  S
C521        C527   1.540       .  S
C521        C525   1.541       .  S
C521        C754   1.468       .  S
C522        H529   1.086       .  S
C522        C523   1.364       .  D
C523        C524   1.544       .  S
C523        C565   1.493       .  S
C524        C528   1.543       .  S
C524        C526   1.543       .  S
C524        H530   1.112       .  S
C525        H531   1.086       .  S
C525        C526   1.364       .  D
C526        C612   1.491       .  S
C527        H532   1.086       .  S
C527        C528   1.364       .  D
C528        C726   1.490       .  S
C533        C534   1.542       .  S
C533        C539   1.539       .  S
C533        C537   1.540       .  S
C533        C759   1.468       .  S
C534        H541   1.086       .  S
C534        C535   1.364       .  D
C535        C536   1.548       .  S
C535        C645   1.498       .  S
C536        C540   1.548       .  S
C536        C538   1.546       .  S
C536        H542   1.111       .  S
C537        H543   1.086       .  S
C537        C538   1.364       .  D
C538        C613   1.493       .  S
C539        H544   1.086       .  S
C539        C540   1.363       .  D
C540        C566   1.493       .  S
N545       C1320   1.350       .  A
N545        C549   1.350       .  A
N545        H577   1.041       .  S
N546        C553   1.351       .  A
N546        C554   1.350   1_554  A
N547       C1322   1.351       .  A
N547        C551   1.351       .  A
N547        H578   1.041       .  S
N548        C555   1.350       .  A
N548        C556   1.350   1_554  A
C549        C557   1.382       .  A
C549        C565   1.403       .  A
C550       N1315   1.350   1_455  A
C550        C566   1.403       .  A
C550        C558   1.382       .  A
C551        C559   1.382       .  A
C551        C568   1.405       .  A
C552       N1317   1.351   1_455  A
C552        C567   1.404       .  A
C552        C560   1.382       .  A
C553        C565   1.403       .  A
C553        C561   1.376       .  A
C554        C568   1.404       .  A
C554        C562   1.377       .  A
C555        C563   1.377       .  A
C555        C566   1.403       .  A
C556        C564   1.377       .  A
C556        C567   1.403       .  A
C557        H569   1.082       .  S
C557       C1328   1.380       .  A
C558        H570   1.082       .  S
C558       C1327   1.380   1_455  A
C559        H571   1.082       .  S
C559       C1330   1.381       .  A
C560        H572   1.082       .  S
C560       C1329   1.381   1_455  A
C561        H573   1.080       .  S
C561        C562   1.373   1_554  A
C562        H574   1.080       .  S
C563        H575   1.080       .  S
C563        C564   1.373   1_554  A
C564        H576   1.080       .  S
C579        C580   1.539       .  S
C579        C585   1.540       .  S
C579        C583   1.541       .  S
C579        C767   1.468       .  S
C580        H587   1.086       .  S
C580        C581   1.363       .  D
C581        C582   1.548       .  S
C581        C679   1.493       .  S
C582        C586   1.548       .  S
C582        C584   1.546       .  S
C582        H588   1.111       .  S
C583        H589   1.086       .  S
C583        C584   1.364       .  D
C584        C614   1.494       .  S
C585        H590   1.086       .  S
C585        C586   1.364       .  D
C586        C646   1.496       .  S
N591        C596   1.351       .  A
N591        H623   1.040       .  S
N592        C599   1.350       .  A
N592       C1370   1.350       .  A
N593        C598   1.351       .  A
N593        H624   1.042       .  S
N594        C601   1.350       .  A
N594       C1372   1.350       .  A
C595        C603   1.382       .  A
C595        C611   1.405       .  A
C596        C612   1.405       .  A
C596        C604   1.381       .  A
C597        C605   1.381       .  A
C597        C614   1.404       .  A
C598        C613   1.404       .  A
C598        C606   1.381       .  A
C599        C611   1.404       .  A
C599        C607   1.378       .  A
C600       N1362   1.350   1_455  A
C600        C614   1.403       .  A
C600        C608   1.377       .  A
C601        C609   1.378       .  A
C601        C612   1.404       .  A
C602       N1364   1.350   1_455  A
C602        C610   1.377       .  A
C602        C613   1.403       .  A
C603        H615   1.082       .  S
C604        H616   1.082       .  S
C605        H617   1.082       .  S
C606        H618   1.082       .  S
C607        H619   1.080       .  S
C607       C1378   1.373       .  A
C608        H620   1.080       .  S
C608       C1377   1.373   1_455  A
C609        H621   1.080       .  S
C609       C1380   1.373       .  A
C610        H622   1.080       .  S
C610       C1379   1.373   1_455  A
C611        C698   1.490       .  S
N625        C630   1.351       .  A
N625        H657   1.028       .  S
N626        C633   1.349       .  A
N626        C634   1.348   1_554  A
N627        C632   1.351       .  A
N627        H658   1.031       .  S
N628        C635   1.348       .  A
N628        C636   1.348   1_554  A
C629        C637   1.379       .  A
C629        C645   1.416       .  A
C630        C646   1.416       .  A
C630        C638   1.379       .  A
C631        C639   1.380       .  A
C631        C648   1.412       .  A
C632        C647   1.412       .  A
C632        C640   1.380       .  A
C633        C645   1.409       .  A
C633        C641   1.381       .  A
C634        C648   1.410       .  A
C634        C642   1.382       .  A
C635        C643   1.381       .  A
C635        C646   1.409       .  A
C636        C644   1.381       .  A
C636        C647   1.409       .  A
C637        H649   1.080       .  S
C638        H650   1.080       .  S
C639        H651   1.081       .  S
C640        H652   1.081       .  S
C641        H653   1.082       .  S
C641        C642   1.381   1_554  A
C642        H654   1.082       .  S
C643        H655   1.082       .  S
C643        C644   1.381   1_554  A
C644        H656   1.082       .  S
N659        C664   1.350       .  A
N659       C1433   1.350       .  A
N659        H691   1.041       .  S
N660        C667   1.351       .  A
N660        C668   1.351   1_554  A
N661        C666   1.351       .  A
N661       C1435   1.351       .  A
N661        H692   1.041       .  S
N662        C669   1.350       .  A
N662        C670   1.350   1_554  A
C663       N1429   1.350   1_455  A
C663        C671   1.382       .  A
C663        C679   1.403       .  A
C664        C680   1.403       .  A
C664        C672   1.382       .  A
C665       N1431   1.351   1_455  A
C665        C673   1.382       .  A
C665        C682   1.404       .  A
C666        C681   1.405       .  A
C666        C674   1.382       .  A
C667        C679   1.403       .  A
C667        C675   1.377       .  A
C668        C682   1.404       .  A
C668        C676   1.377       .  A
C669        C677   1.376       .  A
C669        C680   1.403       .  A
C670        C678   1.377       .  A
C670        C681   1.403       .  A
C671        H683   1.082       .  S
C671       C1442   1.381   1_455  A
C672        H684   1.082       .  S
C672       C1441   1.381       .  A
C673        H685   1.082       .  S
C673       C1444   1.381   1_455  A
C674        H686   1.082       .  S
C674       C1443   1.381       .  A
C675        H687   1.080       .  S
C675        C676   1.373   1_554  A
C676        H688   1.080       .  S
C677        H689   1.080       .  S
C677        C678   1.372   1_554  A
C678        H690   1.080       .  S
C680        C700   1.493       .  S
C693        C694   1.541       .  S
C693        C699   1.541       .  S
C693        C697   1.541       .  S
C693        C763   1.469       .  S
C694        H701   1.086       .  S
C694        C695   1.364       .  D
C695        C696   1.543       .  S
C695        C725   1.492       .  S
C696        C700   1.545       .  S
C696        C698   1.542       .  S
C696        H702   1.112       .  S
C697        H703   1.086       .  S
C697        C698   1.364       .  D
C699        H704   1.086       .  S
C699        C700   1.364       .  D
N705        C710   1.350       .  A
N705        H737   1.030       .  S
N706        C713   1.348       .  A
N706        C714   1.349   1_554  A
N707        C712   1.352   1_545  A
N707        H738   1.027       .  S
N708        C715   1.347       .  A
N708        C716   1.349   1_554  A
C709        C717   1.381       .  A
C709        C725   1.411       .  A
C710        C726   1.411       .  A
C710        C718   1.381       .  A
C711        C719   1.379       .  A
C711        C728   1.416       .  A
C712        C727   1.416       .  A
C712        C720   1.379       .  A
C713        C725   1.409       .  A
C713        C721   1.381       .  A
C714        C728   1.409       .  A
C714        C722   1.381       .  A
C715        C723   1.381       .  A
C715        C726   1.410       .  A
C716        C724   1.381       .  A
C716        C727   1.410       .  A
C717        H729   1.081       .  S
C718        H730   1.081       .  S
C719        H731   1.080       .  S
C720        H732   1.080       .  S
C721        H733   1.082       .  S
C721        C722   1.380   1_554  A
C722        H734   1.082       .  S
C723        H735   1.082       .  S
C723        C724   1.381   1_554  A
C724        H736   1.082       .  S
C739        C740   1.207       .  T
C740        C741   1.414       .  S
C741        C742   1.207       .  T
C743        C744   1.207       .  T
C744        C745   1.415       .  S
C745        C746   1.207       .  T
C747        C748   1.208       .  T
C748        C749   1.416       .  S
C749        C750   1.208       .  T
C751        C752   1.206       .  T
C752        C753   1.412       .  S
C753        C754   1.206       .  T
C755        C756   1.208       .  T
C756        C757   1.416       .  S
C757        C758   1.208       .  T
C759        C760   1.206       .  T
C760        C761   1.413       .  S
C761        C762   1.206       .  T
C763        C764   1.207       .  T
C764        C765   1.413       .  S
C765        C766   1.206       .  T
C767        C768   1.206       .  T
C768        C769   1.412       .  S
C769        C770   1.206       .  T
C771        N789   1.348       .  A
C771        C808   1.455       .  S
C771       C1155   1.436       .  S
N772        N789   1.325       .  A
N772        N794   1.321       .  A
N772       Co809   2.086       .  S
C773        N798   1.341       .  A
C773        C811   1.456       .  S
C773        H818   1.081       .  S
H774        C815   1.082       .  S
C775        N799   1.342       .  A
C775        C779   1.456       .  S
C775        H804   1.082       .  S
Co776       N794   2.086       .  S
Co776       N784   2.084       .  S
Co776       N816   2.087       .  S
Co776       N792   2.089       .  S
Co776      Cl820   2.454       .  S
N777        C815   1.342       .  A
N777        N784   1.321       .  A
N777       Co778   2.088       .  S
Co778       N781   2.086       .  S
Co778       N798   2.086       .  S
Co778       N785   2.089       .  S
Co778      Cl820   2.451       .  S
C779        N817   1.347       .  A
C779       C1136   1.437       .  S
N780        N787   1.321       .  A
N780        N810   1.325       .  A
N780       Co813   2.085       .  S
N781        N799   1.321       .  A
N781        N817   1.325       .  A
N782        C811   1.349       .  A
N782        N792   1.326       .  A
H783        C808   1.081       .  S
N784        N805   1.325       .  A
N785        N803   1.321       .  A
N785        N790   1.326       .  A
C786        N790   1.349       .  A
C786        C814   1.455       .  S
C786       C1124   1.438       .  S
N787        C802   1.341       .  A
N787       Co809   2.087       .  S
C788        N816   1.342       .  A
C788        C791   1.457       .  S
C788        H822   1.082       .  S
C791        N812   1.349       .  A
C791       C1143   1.440       .  S
N792        N798   1.321       .  A
N793        C819   1.342       .  A
N793        N795   1.321       .  A
N793       Co809   2.085       .  S
N794        C808   1.341       .  A
N795        N823   1.325       .  A
N795       Co813   2.088       .  S
H796        C819   1.082       .  S
H797        C814   1.082       .  S
N799       Co813   2.086       .  S
N800        N812   1.326       .  A
N800        N816   1.321       .  A
N800       Co809   2.090       .  S
C801        N805   1.347       .  A
C801        C815   1.457       .  S
C801       C1147   1.437       .  S
C802        C821   1.455       .  S
C802        H806   1.081       .  S
N803        C814   1.341       .  A
N803       Co813   2.083       .  S
C807        N823   1.348       .  A
C807        C819   1.456       .  S
C807       C1128   1.439       .  S
Co809      Cl820   2.451       .  S
N810        C821   1.348       .  A
C811       C1132   1.440       .  S
Co813      Cl820   2.454       .  S
C821       C1151   1.437       .  S
C824        C825   1.541       .  S
C824        C830   1.541       .  S
C824        C828   1.539       .  S
C824       C1127   1.470       .  S
C825        H832   1.086       .  S
C825        C826   1.365       .  D
C826        C827   1.547       .  S
C826       C1112   1.497       .  S
C827        C831   1.547       .  S
C827        C829   1.545       .  S
C827        H833   1.111       .  S
C828        H834   1.086       .  S
C828        C829   1.363       .  D
C829        C892   1.491       .  S
C830        H835   1.086       .  S
C830        C831   1.364       .  D
C831        C953   1.495       .  S
C836        C837   1.540       .  S
C836        C842   1.541       .  S
C836        C840   1.541       .  S
C836       C1131   1.471       .  S
C837        H844   1.086       .  S
C837        C838   1.363       .  D
C838        C839   1.545       .  S
C838        C893   1.492       .  S
C839        C843   1.547       .  S
C839        C841   1.547       .  S
C839        H845   1.111       .  S
C840        H846   1.086       .  S
C840        C841   1.364       .  D
C841       C1113   1.497       .  S
C842        H847   1.086       .  S
C842        C843   1.365       .  D
C843       C1066   1.495       .  S
C848        C849   1.541       .  S
C848        C854   1.542       .  S
C848        C852   1.541       .  S
C848       C1135   1.472       .  S
C849        H856   1.086       .  S
C849        C850   1.364       .  D
C850        C851   1.545       .  S
C850        C952   1.494       .  S
C851        C855   1.544       .  S
C851        C853   1.543       .  S
C851        H857   1.112       .  S
C852        H858   1.086       .  S
C852        C853   1.364       .  D
C853        C895   1.493       .  S
C854        H859   1.086       .  S
C854        C855   1.365       .  D
C855       C1033   1.494       .  S
C860        C861   1.542       .  S
C860        C866   1.542       .  S
C860        C864   1.541       .  S
C860       C1140   1.472       .  S
C861        H868   1.086       .  S
C861        C862   1.365       .  D
C862        C863   1.544       .  S
C862       C1032   1.494       .  S
C863        C867   1.545       .  S
C863        C865   1.543       .  S
C863        H869   1.112       .  S
C864        H870   1.086       .  S
C864        C865   1.364       .  D
C865        C894   1.491       .  S
C866        H871   1.086       .  S
C866        C867   1.364       .  D
C867       C1067   1.494       .  S
N872       C1262   1.351       .  A
N872        C876   1.350       .  A
N872        H904   1.042       .  S
N873        C880   1.350       .  A
N874       C1264   1.351       .  A
N874        C878   1.352       .  A
N874        H905   1.040       .  S
N875        C882   1.350       .  A
C876        C884   1.382       .  A
C876        C892   1.403       .  A
C877       N1257   1.351       .  A
C877        C893   1.403       .  A
C877        C885   1.381       .  A
C878        C886   1.381       .  A
C878        C895   1.406       .  A
C879       N1259   1.351       .  A
C879        C894   1.406       .  A
C879        C887   1.381       .  A
C880        C892   1.403       .  A
C880        C888   1.377       .  A
C881        C895   1.404       .  A
C881        C889   1.378       .  A
C882        C890   1.377       .  A
C882        C893   1.402       .  A
C883        C891   1.378       .  A
C883        C894   1.405       .  A
C884        H896   1.082       .  S
C884       C1270   1.380       .  A
C885        H897   1.082       .  S
C885       C1269   1.380   1_545  A
C886        H898   1.082       .  S
C886       C1272   1.380       .  A
C887        H899   1.082       .  S
C887       C1271   1.380   1_545  A
C888        H900   1.080       .  S
C889        H901   1.080       .  S
C890        H902   1.080       .  S
C891        H903   1.080       .  S
C906        C907   1.541       .  S
C906        C912   1.540       .  S
C906        C910   1.541       .  S
C906       C1139   1.468       .  S
C907        H914   1.086       .  S
C907        C908   1.364       .  D
C908        C909   1.544       .  S
C908        C950   1.493       .  S
C909        C913   1.543       .  S
C909        C911   1.543       .  S
C909        H915   1.112       .  S
C910        H916   1.086       .  S
C910        C911   1.364       .  D
C911        C997   1.491       .  S
C912        H917   1.086       .  S
C912        C913   1.364       .  D
C913       C1111   1.490       .  S
C918        C919   1.542       .  S
C918        C924   1.539       .  S
C918        C922   1.540       .  S
C918       C1144   1.468       .  S
C919        H926   1.086       .  S
C919        C920   1.364       .  D
C920        C921   1.548       .  S
C920       C1030   1.498       .  S
C921        C925   1.548       .  S
C921        C923   1.546       .  S
C921        H927   1.111       .  S
C922        H928   1.086       .  S
C922        C923   1.364       .  D
C923        C998   1.493       .  S
C924        H929   1.086       .  S
C924        C925   1.363       .  D
C925        C951   1.493       .  S
N930        C934   1.350       .  A
N930        H962   1.041       .  S
N931        C938   1.351       .  A
N931        C939   1.350   1_554  A
N932        C936   1.351       .  A
N932        H963   1.041       .  S
N933        C940   1.350       .  A
N933        C941   1.350   1_554  A
C934        C942   1.382       .  A
C934        C950   1.403       .  A
C935        C951   1.403       .  A
C935        C943   1.382       .  A
C936        C944   1.382       .  A
C936        C953   1.405       .  A
C937        C952   1.404       .  A
C937        C945   1.382       .  A
C938        C950   1.403       .  A
C938        C946   1.376       .  A
C939        C953   1.404       .  A
C939        C947   1.377       .  A
C940        C948   1.377       .  A
C940        C951   1.403       .  A
C941        C949   1.377       .  A
C941        C952   1.403       .  A
C942        H954   1.082       .  S
C943        H955   1.082       .  S
C944        H956   1.082       .  S
C945        H957   1.082       .  S
C946        H958   1.080       .  S
C946        C947   1.373   1_554  A
C947        H959   1.080       .  S
C948        H960   1.080       .  S
C948        C949   1.373   1_554  A
C949        H961   1.080       .  S
C964        C965   1.539       .  S
C964        C970   1.540       .  S
C964        C968   1.541       .  S
C964       C1152   1.468       .  S
C965        H972   1.086       .  S
C965        C966   1.363       .  D
C966        C967   1.548       .  S
C966       C1064   1.493       .  S
C967        C971   1.548       .  S
C967        C969   1.546       .  S
C967        H973   1.111       .  S
C968        H974   1.086       .  S
C968        C969   1.364       .  D
C969        C999   1.494       .  S
C970        H975   1.086       .  S
C970        C971   1.364       .  D
C971       C1031   1.496       .  S
N976        C981   1.351       .  A
N976       C1365   1.351       .  A
N976       H1008   1.040       .  S
N977        C984   1.350       .  A
N978        C983   1.351       .  A
N978       C1367   1.351       .  A
N978       H1009   1.042       .  S
N979        C986   1.350       .  A
C980       N1361   1.351   1_545  A
C980        C988   1.382       .  A
C980        C996   1.405       .  A
C981        C997   1.405       .  A
C981        C989   1.381       .  A
C982       N1363   1.351   1_545  A
C982        C990   1.381       .  A
C982        C999   1.404       .  A
C983        C998   1.404       .  A
C983        C991   1.381       .  A
C984        C996   1.404       .  A
C984        C992   1.378       .  A
C985        C999   1.403       .  A
C985        C993   1.377       .  A
C986        C994   1.378       .  A
C986        C997   1.404       .  A
C987        C995   1.377       .  A
C987        C998   1.403       .  A
C988       H1000   1.082       .  S
C988       C1374   1.380   1_545  A
C989       H1001   1.082       .  S
C989       C1373   1.380       .  A
C990       H1002   1.082       .  S
C990       C1376   1.380   1_545  A
C991       H1003   1.082       .  S
C991       C1375   1.380       .  A
C992       H1004   1.080       .  S
C993       H1005   1.080       .  S
C994       H1006   1.080       .  S
C995       H1007   1.080       .  S
C996       C1083   1.490       .  S
N1010      C1015   1.351   1_565  A
N1010      C1399   1.352       .  A
N1010      H1042   1.028       .  S
N1011      C1018   1.349       .  A
N1011      C1019   1.348   1_554  A
N1012      C1017   1.351   1_565  A
N1012      C1401   1.351       .  A
N1012      H1043   1.031       .  S
N1013      C1020   1.348       .  A
N1013      C1021   1.348   1_554  A
C1014      N1395   1.352       .  A
C1014      C1022   1.379       .  A
C1014      C1030   1.416       .  A
C1015      C1031   1.416       .  A
C1015      C1023   1.379       .  A
C1016      N1397   1.351       .  A
C1016      C1024   1.380       .  A
C1016      C1033   1.412       .  A
C1017      C1032   1.412       .  A
C1017      C1025   1.380       .  A
C1018      C1030   1.409       .  A
C1018      C1026   1.381       .  A
C1019      C1033   1.410       .  A
C1019      C1027   1.381       .  A
C1020      C1028   1.381       .  A
C1020      C1031   1.409       .  A
C1021      C1029   1.381       .  A
C1021      C1032   1.409       .  A
C1022      H1034   1.080       .  S
C1022      C1408   1.381       .  A
C1023      H1035   1.080       .  S
C1023      C1407   1.381   1_545  A
C1024      H1036   1.081       .  S
C1024      C1410   1.380       .  A
C1025      H1037   1.081       .  S
C1025      C1409   1.380   1_545  A
C1026      H1038   1.082       .  S
C1026      C1027   1.381   1_554  A
C1027      H1039   1.082       .  S
C1028      H1040   1.082       .  S
C1028      C1029   1.381   1_554  A
C1029      H1041   1.082       .  S
N1044      C1049   1.350       .  A
N1044      H1076   1.041       .  S
N1045      C1052   1.351       .  A
N1045      C1053   1.351   1_554  A
N1046      C1051   1.351       .  A
N1046      H1077   1.041       .  S
N1047      C1054   1.350       .  A
N1047      C1055   1.350   1_554  A
C1048      C1056   1.382       .  A
C1048      C1064   1.403       .  A
C1049      C1065   1.403       .  A
C1049      C1057   1.382       .  A
C1050      C1058   1.382       .  A
C1050      C1067   1.404       .  A
C1051      C1066   1.405       .  A
C1051      C1059   1.382       .  A
C1052      C1064   1.403       .  A
C1052      C1060   1.377       .  A
C1053      C1067   1.404       .  A
C1053      C1061   1.377       .  A
C1054      C1062   1.376       .  A
C1054      C1065   1.403       .  A
C1055      C1063   1.377       .  A
C1055      C1066   1.403       .  A
C1056      H1068   1.082       .  S
C1057      H1069   1.082       .  S
C1058      H1070   1.082       .  S
C1059      H1071   1.082       .  S
C1060      H1072   1.080       .  S
C1060      C1061   1.373   1_554  A
C1061      H1073   1.080       .  S
C1062      H1074   1.080       .  S
C1062      C1063   1.372   1_554  A
C1063      H1075   1.080       .  S
C1065      C1085   1.493       .  S
C1078      C1079   1.541       .  S
C1078      C1084   1.541       .  S
C1078      C1082   1.541       .  S
C1078      C1148   1.469       .  S
C1079      H1086   1.086       .  S
C1079      C1080   1.364       .  D
C1080      C1081   1.543       .  S
C1080      C1110   1.492       .  S
C1081      C1085   1.545       .  S
C1081      C1083   1.542       .  S
C1081      H1087   1.112       .  S
C1082      H1088   1.086       .  S
C1082      C1083   1.364       .  D
C1084      H1089   1.086       .  S
C1084      C1085   1.364       .  D
N1090      C1095   1.350       .  A
N1090      C1479   1.350       .  A
N1090      H1122   1.030       .  S
N1091      C1098   1.348       .  A
N1091      C1099   1.349   1_554  A
N1092      C1097   1.352       .  A
N1092      C1481   1.351       .  A
N1092      H1123   1.027       .  S
N1093      C1100   1.347       .  A
N1093      C1101   1.349   1_554  A
C1094      N1475   1.350   1_545  A
C1094      C1102   1.381       .  A
C1094      C1110   1.411       .  A
C1095      C1111   1.411       .  A
C1095      C1103   1.381       .  A
C1096      N1477   1.351       .  A
C1096      C1104   1.379       .  A
C1096      C1113   1.416       .  A
C1097      C1112   1.416       .  A
C1097      C1105   1.379       .  A
C1098      C1110   1.409       .  A
C1098      C1106   1.381       .  A
C1099      C1113   1.409       .  A
C1099      C1107   1.381       .  A
C1100      C1108   1.381       .  A
C1100      C1111   1.410       .  A
C1101      C1109   1.381       .  A
C1101      C1112   1.410       .  A
C1102      H1114   1.081       .  S
C1102      C1488   1.381   1_545  A
C1103      H1115   1.081       .  S
C1103      C1487   1.381       .  A
C1104      H1116   1.080       .  S
C1104      C1490   1.381   1_545  A
C1105      H1117   1.080       .  S
C1105      C1489   1.381       .  A
C1106      H1118   1.082       .  S
C1106      C1107   1.380   1_554  A
C1107      H1119   1.082       .  S
C1108      H1120   1.082       .  S
C1108      C1109   1.381   1_554  A
C1109      H1121   1.082       .  S
C1124      C1125   1.207       .  T
C1125      C1126   1.414       .  S
C1126      C1127   1.207       .  T
C1128      C1129   1.207       .  T
C1129      C1130   1.415       .  S
C1130      C1131   1.207       .  T
C1132      C1133   1.208       .  T
C1133      C1134   1.416       .  S
C1134      C1135   1.208       .  T
C1136      C1137   1.206       .  T
C1137      C1138   1.412       .  S
C1138      C1139   1.206       .  T
C1140      C1141   1.208       .  T
C1141      C1142   1.416       .  S
C1142      C1143   1.208       .  T
C1144      C1145   1.206       .  T
C1145      C1146   1.413       .  S
C1146      C1147   1.206       .  T
C1148      C1149   1.207       .  T
C1149      C1150   1.413       .  S
C1150      C1151   1.206       .  T
C1152      C1153   1.206       .  T
C1153      C1154   1.412       .  S
C1154      C1155   1.206       .  T
C1156      N1174   1.348       .  A
C1156      C1193   1.455       .  S
C1156      C1540   1.436       .  S
N1157      N1174   1.325       .  A
N1157      N1179   1.321       .  A
N1157     Co1194   2.085       .  S
C1158      N1183   1.341       .  A
C1158      C1196   1.456       .  S
C1158      H1203   1.081       .  S
H1159      C1200   1.082       .  S
C1160      N1184   1.342       .  A
C1160      C1164   1.456       .  S
C1160      H1189   1.082       .  S
Co1161     N1179   2.085       .  S
Co1161     N1169   2.085       .  S
Co1161     N1201   2.087       .  S
Co1161     N1177   2.089       .  S
Co1161    Cl1205   2.454       .  S
N1162      C1200   1.342       .  A
N1162      N1169   1.321       .  A
N1162     Co1163   2.088       .  S
Co1163     N1166   2.085       .  S
Co1163     N1183   2.086       .  S
Co1163     N1170   2.089       .  S
Co1163    Cl1205   2.451       .  S
C1164      N1202   1.347       .  A
C1164      C1521   1.437       .  S
N1165      N1172   1.321       .  A
N1165      N1195   1.325       .  A
N1165     Co1198   2.085       .  S
N1166      N1184   1.321       .  A
N1166      N1202   1.325       .  A
N1167      C1196   1.349       .  A
N1167      N1177   1.326       .  A
H1168      C1193   1.081       .  S
N1169      N1190   1.325       .  A
N1170      N1188   1.321       .  A
N1170      N1175   1.326       .  A
C1171      N1175   1.349       .  A
C1171      C1199   1.455       .  S
C1171      C1509   1.438       .  S
N1172      C1187   1.341       .  A
N1172     Co1194   2.087       .  S
C1173      N1201   1.342       .  A
C1173      C1176   1.457       .  S
C1173      H1207   1.082       .  S
C1176      N1197   1.349       .  A
C1176      C1528   1.440       .  S
N1177      N1183   1.321       .  A
N1178      C1204   1.342       .  A
N1178      N1180   1.321       .  A
N1178     Co1194   2.085       .  S
N1179      C1193   1.341       .  A
N1180      N1208   1.325       .  A
N1180     Co1198   2.088       .  S
H1181      C1204   1.082       .  S
H1182      C1199   1.082       .  S
N1184     Co1198   2.086       .  S
N1185      N1197   1.326       .  A
N1185      N1201   1.321       .  A
N1185     Co1194   2.090       .  S
C1186      N1190   1.347       .  A
C1186      C1200   1.457       .  S
C1186      C1532   1.437       .  S
C1187      C1206   1.455       .  S
C1187      H1191   1.081       .  S
N1188      C1199   1.341       .  A
N1188     Co1198   2.083       .  S
C1192      N1208   1.348       .  A
C1192      C1204   1.456       .  S
C1192      C1513   1.439       .  S
Co1194    Cl1205   2.451       .  S
N1195      C1206   1.348       .  A
C1196      C1517   1.440       .  S
Co1198    Cl1205   2.454       .  S
C1206      C1536   1.437       .  S
C1209      C1210   1.541       .  S
C1209      C1215   1.541       .  S
C1209      C1213   1.539       .  S
C1209      C1512   1.470       .  S
C1210      H1217   1.086       .  S
C1210      C1211   1.365       .  D
C1211      C1212   1.547       .  S
C1211      C1497   1.498       .  S
C1212      C1216   1.547       .  S
C1212      C1214   1.545       .  S
C1212      H1218   1.111       .  S
C1213      H1219   1.086       .  S
C1213      C1214   1.363       .  D
C1214      C1277   1.491       .  S
C1215      H1220   1.086       .  S
C1215      C1216   1.364       .  D
C1216      C1338   1.495       .  S
C1221      C1222   1.540       .  S
C1221      C1227   1.541       .  S
C1221      C1225   1.541       .  S
C1221      C1516   1.471       .  S
C1222      H1229   1.086       .  S
C1222      C1223   1.363       .  D
C1223      C1224   1.545       .  S
C1223      C1278   1.492       .  S
C1224      C1228   1.547       .  S
C1224      C1226   1.547       .  S
C1224      H1230   1.111       .  S
C1225      H1231   1.086       .  S
C1225      C1226   1.364       .  D
C1226      C1498   1.497       .  S
C1227      H1232   1.086       .  S
C1227      C1228   1.365       .  D
C1228      C1451   1.495       .  S
C1233      C1234   1.541       .  S
C1233      C1239   1.542       .  S
C1233      C1237   1.541       .  S
C1233      C1520   1.472       .  S
C1234      H1241   1.086       .  S
C1234      C1235   1.364       .  D
C1235      C1236   1.545       .  S
C1235      C1337   1.494       .  S
C1236      C1240   1.544       .  S
C1236      C1238   1.543       .  S
C1236      H1242   1.112       .  S
C1237      H1243   1.086       .  S
C1237      C1238   1.364       .  D
C1238      C1280   1.493       .  S
C1239      H1244   1.086       .  S
C1239      C1240   1.365       .  D
C1240      C1418   1.494       .  S
C1245      C1246   1.542       .  S
C1245      C1251   1.542       .  S
C1245      C1249   1.541       .  S
C1245      C1525   1.472       .  S
C1246      H1253   1.086       .  S
C1246      C1247   1.365       .  D
C1247      C1248   1.544       .  S
C1247      C1417   1.494       .  S
C1248      C1252   1.545       .  S
C1248      C1250   1.543       .  S
C1248      H1254   1.112       .  S
C1249      H1255   1.086       .  S
C1249      C1250   1.364       .  D
C1250      C1279   1.491       .  S
C1251      H1256   1.086       .  S
C1251      C1252   1.364       .  D
C1252      C1452   1.494       .  S
N1257      C1261   1.350   1_545  A
N1257      H1289   1.042       .  S
N1258      C1265   1.350       .  A
N1259      C1263   1.352   1_545  A
N1259      H1290   1.040       .  S
N1260      C1267   1.350       .  A
C1261      C1269   1.382       .  A
C1261      C1277   1.403       .  A
C1262      C1278   1.403       .  A
C1262      C1270   1.381       .  A
C1263      C1271   1.381       .  A
C1263      C1280   1.406       .  A
C1264      C1279   1.406       .  A
C1264      C1272   1.381       .  A
C1265      C1277   1.403       .  A
C1265      C1273   1.377       .  A
C1266      C1280   1.404       .  A
C1266      C1274   1.378       .  A
C1267      C1275   1.377       .  A
C1267      C1278   1.402       .  A
C1268      C1276   1.378       .  A
C1268      C1279   1.405       .  A
C1269      H1281   1.082       .  S
C1270      H1282   1.082       .  S
C1271      H1283   1.082       .  S
C1272      H1284   1.082       .  S
C1273      H1285   1.080       .  S
C1274      H1286   1.080       .  S
C1275      H1287   1.080       .  S
C1276      H1288   1.080       .  S
C1291      C1292   1.541       .  S
C1291      C1297   1.540       .  S
C1291      C1295   1.541       .  S
C1291      C1524   1.468       .  S
C1292      H1299   1.086       .  S
C1292      C1293   1.364       .  D
C1293      C1294   1.544       .  S
C1293      C1335   1.494       .  S
C1294      C1298   1.543       .  S
C1294      C1296   1.543       .  S
C1294      H1300   1.112       .  S
C1295      H1301   1.086       .  S
C1295      C1296   1.364       .  D
C1296      C1382   1.491       .  S
C1297      H1302   1.086       .  S
C1297      C1298   1.364       .  D
C1298      C1496   1.490       .  S
C1303      C1304   1.542       .  S
C1303      C1309   1.539       .  S
C1303      C1307   1.540       .  S
C1303      C1529   1.468       .  S
C1304      H1311   1.086       .  S
C1304      C1305   1.364       .  D
C1305      C1306   1.548       .  S
C1305      C1415   1.498       .  S
C1306      C1310   1.548       .  S
C1306      C1308   1.546       .  S
C1306      H1312   1.111       .  S
C1307      H1313   1.086       .  S
C1307      C1308   1.364       .  D
C1308      C1383   1.493       .  S
C1309      H1314   1.086       .  S
C1309      C1310   1.363       .  D
C1310      C1336   1.493       .  S
N1315      C1319   1.350       .  A
N1315      H1347   1.041       .  S
N1316      C1323   1.351       .  A
N1316      C1324   1.350   1_554  A
N1317      C1321   1.351       .  A
N1317      H1348   1.041       .  S
N1318      C1325   1.350       .  A
N1318      C1326   1.350   1_554  A
C1319      C1327   1.382       .  A
C1319      C1335   1.403       .  A
C1320      C1336   1.403       .  A
C1320      C1328   1.382       .  A
C1321      C1329   1.382       .  A
C1321      C1338   1.405       .  A
C1322      C1337   1.404       .  A
C1322      C1330   1.382       .  A
C1323      C1335   1.403       .  A
C1323      C1331   1.376       .  A
C1324      C1338   1.404       .  A
C1324      C1332   1.377       .  A
C1325      C1333   1.377       .  A
C1325      C1336   1.403       .  A
C1326      C1334   1.377       .  A
C1326      C1337   1.403       .  A
C1327      H1339   1.082       .  S
C1328      H1340   1.082       .  S
C1329      H1341   1.082       .  S
C1330      H1342   1.082       .  S
C1331      H1343   1.080       .  S
C1331      C1332   1.373   1_554  A
C1332      H1344   1.080       .  S
C1333      H1345   1.080       .  S
C1333      C1334   1.373   1_554  A
C1334      H1346   1.080       .  S
C1349      C1350   1.539       .  S
C1349      C1355   1.540       .  S
C1349      C1353   1.541       .  S
C1349      C1537   1.468       .  S
C1350      H1357   1.086       .  S
C1350      C1351   1.363       .  D
C1351      C1352   1.548       .  S
C1351      C1449   1.493       .  S
C1352      C1356   1.548       .  S
C1352      C1354   1.546       .  S
C1352      H1358   1.111       .  S
C1353      H1359   1.086       .  S
C1353      C1354   1.364       .  D
C1354      C1384   1.494       .  S
C1355      H1360   1.086       .  S
C1355      C1356   1.364       .  D
C1356      C1416   1.496       .  S
N1361      C1366   1.351       .  A
N1361      H1393   1.040       .  S
N1362      C1369   1.350       .  A
N1363      C1368   1.351       .  A
N1363      H1394   1.042       .  S
N1364      C1371   1.350       .  A
C1365      C1373   1.382       .  A
C1365      C1381   1.405       .  A
C1366      C1382   1.405       .  A
C1366      C1374   1.381       .  A
C1367      C1375   1.381       .  A
C1367      C1384   1.404       .  A
C1368      C1383   1.404       .  A
C1368      C1376   1.381       .  A
C1369      C1381   1.404       .  A
C1369      C1377   1.378       .  A
C1370      C1384   1.403       .  A
C1370      C1378   1.377       .  A
C1371      C1379   1.378       .  A
C1371      C1382   1.404       .  A
C1372      C1380   1.377       .  A
C1372      C1383   1.403       .  A
C1373      H1385   1.082       .  S
C1374      H1386   1.082       .  S
C1375      H1387   1.082       .  S
C1376      H1388   1.082       .  S
C1377      H1389   1.080       .  S
C1378      H1390   1.080       .  S
C1379      H1391   1.080       .  S
C1380      H1392   1.080       .  S
C1381      C1468   1.490       .  S
N1395      C1400   1.351       .  A
N1395      H1427   1.028       .  S
N1396      C1403   1.349       .  A
N1396      C1404   1.348   1_554  A
N1397      C1402   1.351       .  A
N1397      H1428   1.031       .  S
N1398      C1405   1.348       .  A
N1398      C1406   1.348   1_554  A
C1399      C1407   1.379       .  A
C1399      C1415   1.416       .  A
C1400      C1416   1.416       .  A
C1400      C1408   1.379       .  A
C1401      C1409   1.380       .  A
C1401      C1418   1.412       .  A
C1402      C1417   1.412       .  A
C1402      C1410   1.380       .  A
C1403      C1415   1.409       .  A
C1403      C1411   1.381       .  A
C1404      C1418   1.410       .  A
C1404      C1412   1.382       .  A
C1405      C1413   1.381       .  A
C1405      C1416   1.409       .  A
C1406      C1414   1.381       .  A
C1406      C1417   1.409       .  A
C1407      H1419   1.080       .  S
C1408      H1420   1.080       .  S
C1409      H1421   1.081       .  S
C1410      H1422   1.081       .  S
C1411      H1423   1.082       .  S
C1411      C1412   1.381   1_554  A
C1412      H1424   1.082       .  S
C1413      H1425   1.082       .  S
C1413      C1414   1.381   1_554  A
C1414      H1426   1.082       .  S
N1429      C1434   1.350       .  A
N1429      H1461   1.041       .  S
N1430      C1437   1.351       .  A
N1430      C1438   1.351   1_554  A
N1431      C1436   1.351       .  A
N1431      H1462   1.041       .  S
N1432      C1439   1.350       .  A
N1432      C1440   1.350   1_554  A
C1433      C1441   1.382       .  A
C1433      C1449   1.403       .  A
C1434      C1450   1.403       .  A
C1434      C1442   1.382       .  A
C1435      C1443   1.382       .  A
C1435      C1452   1.404       .  A
C1436      C1451   1.405       .  A
C1436      C1444   1.382       .  A
C1437      C1449   1.403       .  A
C1437      C1445   1.377       .  A
C1438      C1452   1.404       .  A
C1438      C1446   1.377       .  A
C1439      C1447   1.376       .  A
C1439      C1450   1.403       .  A
C1440      C1448   1.377       .  A
C1440      C1451   1.403       .  A
C1441      H1453   1.082       .  S
C1442      H1454   1.082       .  S
C1443      H1455   1.082       .  S
C1444      H1456   1.082       .  S
C1445      H1457   1.080       .  S
C1445      C1446   1.373   1_554  A
C1446      H1458   1.080       .  S
C1447      H1459   1.080       .  S
C1447      C1448   1.372   1_554  A
C1448      H1460   1.080       .  S
C1450      C1470   1.493       .  S
C1463      C1464   1.541       .  S
C1463      C1469   1.541       .  S
C1463      C1467   1.541       .  S
C1463      C1533   1.469       .  S
C1464      H1471   1.086       .  S
C1464      C1465   1.364       .  D
C1465      C1466   1.543       .  S
C1465      C1495   1.492       .  S
C1466      C1470   1.545       .  S
C1466      C1468   1.542       .  S
C1466      H1472   1.112       .  S
C1467      H1473   1.086       .  S
C1467      C1468   1.364       .  D
C1469      H1474   1.086       .  S
C1469      C1470   1.364       .  D
N1475      C1480   1.350       .  A
N1475      H1507   1.030       .  S
N1476      C1483   1.348       .  A
N1476      C1484   1.349   1_554  A
N1477      C1482   1.352   1_545  A
N1477      H1508   1.027       .  S
N1478      C1485   1.347       .  A
N1478      C1486   1.349   1_554  A
C1479      C1487   1.381       .  A
C1479      C1495   1.411       .  A
C1480      C1496   1.411       .  A
C1480      C1488   1.381       .  A
C1481      C1489   1.379       .  A
C1481      C1498   1.416       .  A
C1482      C1497   1.416       .  A
C1482      C1490   1.379       .  A
C1483      C1495   1.409       .  A
C1483      C1491   1.381       .  A
C1484      C1498   1.409       .  A
C1484      C1492   1.381       .  A
C1485      C1493   1.381       .  A
C1485      C1496   1.410       .  A
C1486      C1494   1.381       .  A
C1486      C1497   1.410       .  A
C1487      H1499   1.081       .  S
C1488      H1500   1.081       .  S
C1489      H1501   1.080       .  S
C1490      H1502   1.080       .  S
C1491      H1503   1.082       .  S
C1491      C1492   1.380   1_554  A
C1492      H1504   1.082       .  S
C1493      H1505   1.082       .  S
C1493      C1494   1.381   1_554  A
C1494      H1506   1.082       .  S
C1509      C1510   1.207       .  T
C1510      C1511   1.414       .  S
C1511      C1512   1.207       .  T
C1513      C1514   1.207       .  T
C1514      C1515   1.415       .  S
C1515      C1516   1.207       .  T
C1517      C1518   1.208       .  T
C1518      C1519   1.416       .  S
C1519      C1520   1.208       .  T
C1521      C1522   1.206       .  T
C1522      C1523   1.412       .  S
C1523      C1524   1.206       .  T
C1525      C1526   1.208       .  T
C1526      C1527   1.416       .  S
C1527      C1528   1.208       .  T
C1529      C1530   1.206       .  T
C1530      C1531   1.413       .  S
C1531      C1532   1.206       .  T
C1533      C1534   1.207       .  T
C1534      C1535   1.413       .  S
C1535      C1536   1.206       .  T
C1537      C1538   1.206       .  T
C1538      C1539   1.412       .  S
C1539      C1540   1.206       .  T
