geometry optimzed in LAMMPS
_audit_creation_date              2020-11-30 
_audit_creation_method            'lammps2cif' 
_symmetry_space_group_name_H-M    'P1' 
_symmetry_Int_Tables_number       1 
_symmetry_cell_setting            triclinic 
loop_ 
_symmetry_equiv_pos_as_xyz 
  x,y,z 
_cell_length_a                    42.14875527280996 
_cell_length_b                    42.3695000590692 
_cell_length_c                    42.35608899003677 
_cell_angle_alpha                 90.60521146160025 
_cell_angle_beta                  92.2124970163924 
_cell_angle_gamma                 90.11835840693479 
loop_ 
_atom_site_label 
_atom_site_type_symbol 
_atom_site_fract_x 
_atom_site_fract_y 
_atom_site_fract_z 
_atom_site_charge 
C1          C  0.46720552  0.35845312  0.59385358     0.43240
N2          N  0.46081884  0.34592950  0.54518764     0.02130
C3          C  0.41930337  0.21555160  0.47546069    -0.05740
H4          H  0.53369223  0.21882104  0.58104495     0.07630
C5          C  0.58443872  0.28252117  0.50637350    -0.06090
Co6        Co  0.43991642  0.27949326  0.53873502     0.74180
N7          N  0.49290264  0.23815379  0.55447281    -0.25270
Co8        Co  0.49608971  0.23436628  0.50179555     0.74070
C9          C  0.59793817  0.25334985  0.51714718     0.43350
N10         N  0.53519647  0.34162213  0.49490209     0.01750
N11         N  0.54693074  0.24706243  0.50800455     0.01860
N12         N  0.39752842  0.23393722  0.51864904    -0.46120
H13         H  0.44800090  0.31140866  0.61032046     0.07610
N14         N  0.46948056  0.25511577  0.56556197     0.02140
N15         N  0.50163333  0.23719829  0.45051991     0.01880
C16         C  0.50778189  0.23414710  0.39918552     0.43490
N17         N  0.51149651  0.35975117  0.50270870    -0.24730
C18         C  0.37919807  0.29991362  0.50176695    -0.05650
N19         N  0.47147353  0.36869106  0.56427396    -0.45830
N20         N  0.49251568  0.22078026  0.42424492    -0.46060
C21         C  0.37111966  0.32514625  0.47974858     0.43260
N22         N  0.42804880  0.23849545  0.51935080     0.02130
N23         N  0.47161492  0.33922557  0.44975871    -0.24750
N24         N  0.45120340  0.32123729  0.56072041    -0.25240
N25         N  0.49601255  0.32334290  0.43992907     0.01770
H26         H  0.43067280  0.35950014  0.42548008     0.07660
H27         H  0.53895307  0.27767228  0.40024079     0.07690
N28         N  0.44349289  0.22647542  0.49581672    -0.25290
N29         N  0.55429730  0.27599283  0.49988710    -0.24900
N30         N  0.42121825  0.32529057  0.49049781     0.02130
C31         C  0.49377273  0.24365697  0.60901274     0.43530
C32         C  0.52248656  0.38885426  0.50883474    -0.06160
N33         N  0.51952180  0.26110884  0.44284180    -0.24900
H34         H  0.59663361  0.30331876  0.49847889     0.07680
N35         N  0.46870831  0.25787500  0.59623324    -0.46130
H36         H  0.50795098  0.40940181  0.51284709     0.07660
C37         C  0.46800474  0.33195092  0.39818093     0.43360
C38         C  0.45308058  0.32752073  0.59157367    -0.05650
Co39       Co  0.46573804  0.34356352  0.49701472     0.73820
N40         N  0.56239129  0.35688773  0.49477029    -0.45840
C41         C  0.38789155  0.22065929  0.49171322     0.43630
N42         N  0.39912065  0.33783358  0.47224274    -0.45830
Co43       Co  0.52673643  0.30071327  0.47005113     0.73890
C44         C  0.52631002  0.25968145  0.41251048    -0.06160
C45         C  0.51102287  0.23072773  0.58102281    -0.05720
N46         N  0.41031351  0.30275903  0.50792946    -0.25250
N47         N  0.57340846  0.23172078  0.51761917    -0.46010
H48         H  0.42267467  0.20585090  0.45211537     0.07640
C49         C  0.45279315  0.34669807  0.42486341    -0.06140
Cl50       Cl  0.48272749  0.28920585  0.50244306    -0.49140
C51         C  0.55638676  0.38682024  0.50324941     0.43390
H52         H  0.36344715  0.28490346  0.51435932     0.07600
N53         N  0.49479657  0.31866581  0.40932238    -0.45850
C54         C  0.46634380  0.42717056  0.31747357     0.43240
N55         N  0.49904976  0.46106357  0.30105171     0.02130
C56         C  0.46948957  0.61636550  0.28096932    -0.05740
H57         H  0.38545400  0.56059793  0.25060222     0.07630
C58         C  0.43027745  0.48765657  0.19941062    -0.06090
Co59       Co  0.48283087  0.52616317  0.31251865     0.74180
N60         N  0.42887858  0.54050420  0.26859693    -0.25270
Co61       Co  0.46032460  0.55964184  0.23971607     0.74070
C62         C  0.40027049  0.50814224  0.19999055     0.43350
N63         N  0.50780548  0.45383080  0.21451397     0.01750
N64         N  0.44415653  0.53549652  0.20183806     0.01860
N65         N  0.48342736  0.59427948  0.32805149    -0.46120
H66         H  0.43923955  0.46553609  0.34461737     0.07610
N67         N  0.43712611  0.52666216  0.29547719     0.02140
N68         N  0.49177068  0.57773428  0.21258609     0.01880
C69         C  0.52740811  0.61424502  0.21279557     0.43490
N70         N  0.52113281  0.44716126  0.24203936    -0.24730
C71         C  0.54937968  0.54695156  0.34255637    -0.05650
N72         N  0.49054247  0.43150859  0.29899140    -0.45830
N73         N  0.49702033  0.60817502  0.21617119    -0.46060
C74         C  0.58191361  0.53949116  0.33374827     0.43260
N75         N  0.48291816  0.57334046  0.30511492     0.02130
N76         N  0.56760414  0.49228563  0.24726566    -0.24750
N77         N  0.48026609  0.47807189  0.31800486    -0.25240
N78         N  0.56143393  0.50397383  0.21910033     0.01770
H79         H  0.60921241  0.47789310  0.27388997     0.07660
H80         H  0.56559651  0.57535235  0.20420972     0.07690
N81         N  0.47468613  0.58567887  0.27757751    -0.25290
N82         N  0.45658356  0.50739421  0.19910623    -0.24900
N83         N  0.54985716  0.50842497  0.30925102     0.02130
C84         C  0.38787347  0.53186232  0.29570391     0.43530
C85         C  0.52447966  0.41664938  0.24632806    -0.06160
N86         N  0.51606162  0.56008201  0.20493289    -0.24900
H87         H  0.43159736  0.46229051  0.20159445     0.07680
N88         N  0.41283542  0.52124125  0.31286320    -0.46130
H89         H  0.53482257  0.40605677  0.26744059     0.07660
C90         C  0.61279720  0.50048068  0.22593992     0.43360
C91         C  0.45908941  0.45847240  0.33077567    -0.05650
Co92       Co  0.53431612  0.47774277  0.27542432     0.73820
N93         N  0.49911323  0.42627856  0.19988818    -0.45840
C94         C  0.47558792  0.62158566  0.31416757     0.43630
N95         N  0.58010031  0.51497411  0.31391381    -0.45830
Co96       Co  0.51019007  0.50618740  0.20603785     0.73890
C97         C  0.54082541  0.58161915  0.20549607    -0.06160
C98         C  0.39801206  0.54575571  0.26736000    -0.05720
N99         N  0.53106014  0.52696712  0.32495646    -0.25250
N100        N  0.41309356  0.53676936  0.19963693    -0.46010
H101        H  0.46025636  0.63199647  0.26285175     0.07640
C102        C  0.59830614  0.48837501  0.25297783    -0.06140
Cl103      Cl  0.49743300  0.51780290  0.25815596    -0.49140
C104        C  0.50939142  0.40180555  0.21968862     0.43390
H105        H  0.54073695  0.56533758  0.35758728     0.07600
N106        N  0.58886272  0.51049750  0.20519914    -0.45850
C107        C  0.39874823  0.72373807  0.49339489     0.43240
N108        N  0.44831993  0.72460919  0.49818029     0.02130
C109        C  0.54223502  0.82608273  0.57376111    -0.05740
H110        H  0.44321353  0.82395878  0.44166489     0.07630
C111        C  0.54565434  0.78971809  0.40232263    -0.06090
Co112      Co  0.46939983  0.77692835  0.53810478     0.74180
N113        N  0.46474142  0.82249154  0.48953051    -0.25270
Co114      Co  0.51973493  0.81988033  0.49263472     0.74070
C115        C  0.52728146  0.81228695  0.38616203     0.43350
N116        N  0.50666504  0.73558684  0.43286983     0.01750
N117        N  0.52056318  0.81628438  0.43844533     0.01860
N118        N  0.49938389  0.80364849  0.59080471    -0.46120
H119        H  0.39265127  0.76338204  0.52945607     0.07610
N120        N  0.45018658  0.81455531  0.51529621     0.02140
N121        N  0.57211121  0.80630296  0.49541047     0.01880
C122        C  0.62326386  0.79558548  0.50306934     0.43490
N123        N  0.48796698  0.71623365  0.44730103    -0.24730
C124        C  0.50119738  0.73245032  0.58887441    -0.05650
N125        N  0.42482870  0.70886502  0.48468754    -0.45830
N126        N  0.59930059  0.81688340  0.51015320    -0.46060
C127        C  0.52074673  0.70452144  0.58557284     0.43260
N128        N  0.49838244  0.80578910  0.56014098     0.02130
N129        N  0.53997127  0.69723209  0.49140768    -0.24750
N130        N  0.43878765  0.74799632  0.51571731    -0.25240
N131        N  0.55784383  0.71496778  0.47474840     0.01770
H132        H  0.54996402  0.65380171  0.51673067     0.07660
H133        H  0.61885650  0.75067895  0.47401938     0.07690
N134        N  0.52225106  0.81979750  0.54723968    -0.25290
N135        N  0.53848186  0.79249402  0.43193584    -0.24900
N136        N  0.50084520  0.71521020  0.54110058     0.02130
C137        C  0.40809126  0.81610760  0.48273758     0.43530
C138        C  0.46440972  0.70768586  0.42726530    -0.06160
N139        N  0.57818075  0.77940264  0.48083735    -0.24900
H140        H  0.55732523  0.76918121  0.39272514     0.07680
N141        N  0.41891259  0.81345962  0.51264307    -0.46130
H142        H  0.44516234  0.69184921  0.43216637     0.07660
C143        C  0.58855749  0.67742823  0.48747760     0.43360
C144        C  0.40737437  0.74836381  0.51542015    -0.05650
Co145      Co  0.49377042  0.71184511  0.49478819     0.73820
N146        N  0.49666749  0.74160215  0.40379803    -0.45840
C147        C  0.52596339  0.81484104  0.60394287     0.43630
N148        N  0.51985090  0.69574309  0.55559714    -0.45830
Co149      Co  0.54507200  0.75545055  0.45579981     0.73890
C150        C  0.60827989  0.77133622  0.48421633    -0.06160
C151        C  0.43984225  0.82253740  0.46678885    -0.05720
N152        N  0.49081031  0.73824242  0.55924055    -0.25250
N153        N  0.51122803  0.82875621  0.40996875    -0.46010
H154        H  0.56602042  0.83550172  0.57259274     0.07640
C155        C  0.55771133  0.67268208  0.50184476    -0.06140
Cl156      Cl  0.50761590  0.76648100  0.49569719    -0.49140
C157        C  0.47139900  0.72298883  0.39772725     0.43390
H158        H  0.49729478  0.74656142  0.60957060     0.07600
N159        N  0.58616717  0.70375128  0.47102201    -0.45850
C160        C  0.68470177  0.58016932  0.40592553     0.43240
N161        N  0.69505797  0.57705685  0.45497349     0.02130
C162        C  0.81196503  0.59717558  0.54377465    -0.05740
H163        H  0.80308811  0.47849448  0.44081234     0.07630
C164        C  0.73416193  0.44421791  0.52197004    -0.06090
Co165      Co  0.76240743  0.58606824  0.46942911     0.74180
N166        N  0.79391577  0.52497951  0.46123564    -0.25270
Co167      Co  0.79285470  0.52398913  0.51430989     0.74070
C168        C  0.75748214  0.42436186  0.50828275     0.43350
N169        N  0.68417681  0.50223149  0.50679547     0.01750
N170        N  0.77333274  0.47460679  0.50981277     0.01860
N171        N  0.80915536  0.62224841  0.49827834    -0.46120
H172        H  0.73672379  0.58758821  0.39422677     0.07610
N173        N  0.78383476  0.55069383  0.44654699     0.02140
N174        N  0.78501056  0.52338276  0.56589396     0.01880
C175        C  0.78205024  0.52664316  0.61779911     0.43490
N176        N  0.67073630  0.52677631  0.49306613    -0.24730
C177        C  0.73992641  0.65167345  0.49823943    -0.05650
N178        N  0.67153269  0.57589241  0.43385978    -0.45830
N179        N  0.80056409  0.53385270  0.59245310    -0.46060
C180        C  0.71312739  0.66127180  0.51776116     0.43260
N181        N  0.80296306  0.59215461  0.49450582     0.02130
N182        N  0.68305606  0.56470487  0.54877901    -0.24750
N183        N  0.72256058  0.58131752  0.44226581    -0.25240
N184        N  0.69753138  0.54085018  0.56198295     0.01770
H185        H  0.64914983  0.59864263  0.56625672     0.07660
H186        H  0.73307548  0.50479641  0.61630114     0.07690
N187        N  0.80663940  0.57500251  0.51993510    -0.25290
N188        N  0.74471912  0.47311236  0.52044120    -0.24900
N189        N  0.71422849  0.61115134  0.51250476     0.02130
C190        C  0.78942005  0.51942520  0.40633752     0.43530
C191        C  0.64566994  0.51696523  0.47524832    -0.06160
N192        N  0.75704704  0.51244123  0.57306729    -0.24900
H193        H  0.71332426  0.43928354  0.53476758     0.07680
N194        N  0.78130864  0.54837399  0.41557112    -0.46130
H195        H  0.62929514  0.53183940  0.46196552     0.07660
C196        C  0.67103836  0.55995240  0.59858083     0.43360
C197        C  0.71848029  0.58364470  0.41101575    -0.05650
Co198      Co  0.68997357  0.57059288  0.50214465     0.73820
N199        N  0.66950799  0.47561364  0.49953379    -0.45840
C200        C  0.81370103  0.62957959  0.52864396     0.43630
N201        N  0.70089054  0.63419333  0.52774623    -0.45830
Co202      Co  0.72091776  0.50719757  0.54012055     0.73890
C203        C  0.75414502  0.51157573  0.60428724    -0.06160
C204        C  0.79755887  0.50314720  0.43728405    -0.05720
N205        N  0.73841625  0.62009632  0.49602613    -0.25250
N206        N  0.78236639  0.44494021  0.50165449    -0.46010
H207        H  0.81214418  0.59210863  0.56872450     0.07640
C208        C  0.66499556  0.57893316  0.57033248    -0.06140
Cl209      Cl  0.74177541  0.54639363  0.50630203    -0.49140
C210        C  0.64525239  0.48284804  0.47947087     0.43390
H211        H  0.75489228  0.66630956  0.48434073     0.07600
N212        N  0.69155632  0.53770357  0.59141773    -0.45850
C213        C  0.54508320  0.41880262  0.68305431     0.43240
N214        N  0.54325194  0.46760124  0.69408896     0.02130
C215        C  0.58794256  0.56012363  0.80522475    -0.05740
H216        H  0.46558371  0.45816730  0.80881895     0.07630
C217        C  0.41844603  0.53697914  0.74779242    -0.06090
Co218      Co  0.56561537  0.48409809  0.75834778     0.74180
N219        N  0.51103810  0.47979020  0.79788437    -0.25270
Co220      Co  0.51046388  0.53254037  0.79437857     0.74070
C221        C  0.40620894  0.51980498  0.77354349     0.43350
N222        N  0.46901086  0.52335142  0.69244922     0.01750
N223        N  0.45794489  0.52815017  0.78177018     0.01860
N224        N  0.61161778  0.51482673  0.79654806    -0.46120
H225        H  0.56061439  0.40616841  0.73408390     0.07610
N226        N  0.53609474  0.46537702  0.78720227     0.02140
N227        N  0.50878590  0.58409342  0.78444654     0.01880
C228        C  0.51191627  0.63585813  0.77950588     0.43490
N229        N  0.49045022  0.50753991  0.67714773    -0.24730
C230        C  0.62598080  0.51134441  0.73043422    -0.05650
N231        N  0.53928606  0.44720776  0.67088160    -0.45830
N232        N  0.52156109  0.61048932  0.79792823    -0.46060
C233        C  0.63117511  0.53596379  0.70782886     0.43260
N234        N  0.58064067  0.51181375  0.79443152     0.02130
N235        N  0.53418042  0.56089831  0.68287017    -0.24750
N236        N  0.55175037  0.45471849  0.72109684    -0.25240
N237        N  0.51202682  0.57771805  0.69551913     0.01770
H238        H  0.57429727  0.57276590  0.65536002     0.07660
H239        H  0.48253447  0.63420885  0.73337464     0.07690
N240        N  0.56433559  0.53721167  0.80116419    -0.25290
N241        N  0.44948465  0.54009375  0.75421277    -0.24900
N242        N  0.58307031  0.52129499  0.70412156     0.02130
C243        C  0.50714923  0.42454723  0.79544384     0.43530
C244        C  0.47554880  0.48693193  0.65754746    -0.06160
N245        N  0.49344654  0.59140250  0.75789707    -0.24900
H246        H  0.40601869  0.54460802  0.72640630     0.07680
N247        N  0.53475245  0.43489361  0.78621884    -0.46130
H248        H  0.48676246  0.47075121  0.64155369     0.07660
C249        C  0.54169588  0.61074004  0.67359953     0.43360
C250        C  0.55307961  0.42333582  0.71669672    -0.05650
Co251      Co  0.53777798  0.51438914  0.68840886     0.73820
N252        N  0.43993416  0.51438060  0.68468612    -0.45840
C253        C  0.62063092  0.54452773  0.80175241     0.43630
N254        N  0.60391621  0.53927103  0.69103309    -0.45830
Co255      Co  0.48055865  0.55830331  0.72465606     0.73890
C256        C  0.49277068  0.62253221  0.75383975    -0.06160
C257        C  0.49014949  0.45525680  0.80296978    -0.05720
N258        N  0.59493962  0.50624618  0.72856503    -0.25250
N259        N  0.43214955  0.51458024  0.79423505    -0.46010
H260        H  0.58332316  0.58508468  0.80776245     0.07640
C261        C  0.55425243  0.57977878  0.66890438    -0.06140
Cl262      Cl  0.52316646  0.52221167  0.74183757    -0.49140
C263        C  0.44176098  0.49219203  0.66201595     0.43390
H264        H  0.64225142  0.49812652  0.74464731     0.07600
N265        N  0.51519538  0.60793366  0.68992736    -0.45850
C266        C  0.34610001  0.44085851  0.50316810     0.43240
N267        N  0.31112503  0.46769087  0.47833208     0.02130
C268        C  0.28914374  0.61974930  0.50323958    -0.05740
H269        H  0.30128754  0.54738405  0.59911033     0.07630
C270        C  0.20998108  0.49420470  0.56668860    -0.06090
Co271      Co  0.32294593  0.53419914  0.48235612     0.74180
N272        N  0.30463432  0.54483089  0.54825832    -0.25270
Co273      Co  0.26287908  0.56145716  0.52874322     0.74070
C274        C  0.22773347  0.50816785  0.59592923     0.43350
N275        N  0.21977642  0.45977417  0.49039338     0.01750
N276        N  0.23714109  0.53337648  0.55317231     0.01860
N277        N  0.32504716  0.60287135  0.46903510    -0.46120
H278        H  0.37924502  0.48354457  0.51056894     0.07610
N279        N  0.32794656  0.53684602  0.53001494     0.02140
N280        N  0.22202471  0.57984083  0.51046831     0.01880
C281        C  0.21569036  0.62232330  0.48154772     0.43490
N282        N  0.24599127  0.45018777  0.47751103    -0.24730
C283        C  0.32190386  0.54918726  0.41174188    -0.05650
N284        N  0.31709643  0.43969311  0.48932592    -0.45830
N285        N  0.22270718  0.61082068  0.51009808    -0.46060
C286        C  0.30257982  0.53706167  0.38497951     0.43260
N287        N  0.30938110  0.57947666  0.48127713     0.02130
N288        N  0.23165045  0.48671190  0.42599899    -0.24750
N289        N  0.33378261  0.48791809  0.48542447    -0.25240
N290        N  0.21267578  0.50943779  0.43410655     0.01770
H291        H  0.24659139  0.46591872  0.38356500     0.07660
H292        H  0.20082847  0.58863854  0.43895232     0.07690
N293        N  0.28824994  0.58910727  0.50109970    -0.25290
N294        N  0.21712112  0.51246527  0.54083531    -0.24900
N295        N  0.29469649  0.50874445  0.42488670     0.02130
C296        C  0.34621704  0.52973602  0.57612380     0.43530
C297        C  0.25044022  0.41949944  0.47992873    -0.06160
N298        N  0.21033280  0.56617435  0.48468008    -0.24900
H299        H  0.19602683  0.47276109  0.56533460     0.07680
N300        N  0.35341532  0.52754153  0.54584215    -0.46130
H301        H  0.26900701  0.40605016  0.46911832     0.07660
C302        C  0.21264876  0.50678622  0.38155682     0.43360
C303        C  0.35793587  0.47287302  0.50017728    -0.05650
Co304      Co  0.27153334  0.47786073  0.45200972     0.73820
N305        N  0.20557637  0.43456453  0.50325630    -0.45840
C306        C  0.31199824  0.62881891  0.48131470     0.43630
N307        N  0.28647702  0.51260905  0.39523289    -0.45830
Co308      Co  0.21167686  0.51250841  0.48720369     0.73890
C309        C  0.20661780  0.59133758  0.46392334    -0.06160
C310        C  0.31435862  0.54161237  0.57846150    -0.05720
N311        N  0.31472645  0.53031327  0.43547448    -0.25250
N312        N  0.24320108  0.53173348  0.58342602    -0.46010
H313        H  0.27969400  0.63261323  0.52252576     0.07640
C314        C  0.23008567  0.48096831  0.39524486    -0.06140
Cl315      Cl  0.26682338  0.52106168  0.48813751    -0.49140
C316        C  0.22462822  0.40858239  0.49721424     0.43390
H317        H  0.33693643  0.56988862  0.41348395     0.07600
N318        N  0.20195321  0.52405417  0.40741398    -0.45850
C319        C  0.84642019  0.55073538  0.91427177     0.43240
N320        N  0.83289751  0.53775355  0.96027193     0.02130
C321        C  0.71754782  0.44827681  0.01507405    -0.05740
H322        H  0.69603915  0.58295159  0.94234395     0.07630
C323        C  0.75763464  0.61425920  0.04708456    -0.06090
Co324      Co  0.77537975  0.49699858  0.95705334     0.74180
N325        N  0.72248690  0.54108230  0.95815772    -0.25270
Co326      Co  0.72266050  0.52775832  0.00954436     0.74070
C327        C  0.73686491  0.62957607  0.02422801     0.43350
N328        N  0.82230514  0.57534076  0.04297472     0.01750
N329        N  0.73081566  0.57805101  0.02103977     0.01860
N330        N  0.74876172  0.43536790  0.97599521    -0.46120
H331        H  0.79971303  0.53191136  0.89195107     0.07610
N332        N  0.74183128  0.52431591  0.94148936     0.02140
N333        N  0.72513004  0.51676422  0.06151372     0.01880
C334        C  0.72458485  0.50785059  0.11280714     0.43490
N335        N  0.84216942  0.56595201  0.02200097    -0.24730
C336        C  0.81493509  0.44114949  0.95494158    -0.05650
N337        N  0.85531711  0.55174215  0.94504745    -0.45830
N338        N  0.70734711  0.50385425  0.08415447    -0.46060
C339        C  0.84357435  0.43024193  0.96979279     0.43260
N340        N  0.74354489  0.46619803  0.97662834     0.02130
N341        N  0.83794343  0.50354303  0.04989502    -0.24750
N342        N  0.80878682  0.52877730  0.94163874    -0.25240
N343        N  0.81460450  0.51233853  0.06753963     0.01770
H344        H  0.87308905  0.46681239  0.05517022     0.07660
H345        H  0.77147846  0.53211747  0.12197689     0.07690
N346        N  0.72487123  0.47562051  0.99927630    -0.25290
N347        N  0.75400018  0.58358769  0.04223651    -0.24900
N348        N  0.83478145  0.47622333  0.98704582     0.02130
C349        C  0.72791317  0.55775530  0.90529389     0.43530
C350        C  0.86076373  0.59037194  0.01502190    -0.06160
N351        N  0.75132870  0.52733301  0.07526781    -0.24900
H352        H  0.77571772  0.62474911  0.06242876     0.07680
N353        N  0.74500160  0.53271697  0.91228498    -0.46130
H354        H  0.87870009  0.59044600  0.99743892     0.07660
C355        C  0.83645664  0.47480302  0.09351805     0.43360
C356        C  0.81400172  0.53858440  0.91256530    -0.05650
Co357      Co  0.83838177  0.52095914  0.00497136     0.73820
N358        N  0.82631946  0.60473911  0.05178435    -0.45840
C359        C  0.73368208  0.42052940  0.99902719     0.43630
N360        N  0.85541097  0.45302252  0.98948906    -0.45830
Co361      Co  0.78569631  0.54968112  0.05704639     0.73890
C362        C  0.75245590  0.52390822  0.10601574    -0.06160
C363        C  0.71167006  0.56370046  0.93669172    -0.05720
N364        N  0.81064978  0.46880878  0.96822021    -0.25250
N365        N  0.72081074  0.60544318  0.00818791    -0.46010
H366        H  0.70530516  0.44793528  0.03700607     0.07640
C367        C  0.85360115  0.48007176  0.06450732    -0.06140
Cl368      Cl  0.78014553  0.52406806  0.00711686    -0.49140
C369        C  0.84947241  0.61612263  0.03493438     0.43390
H370        H  0.79899386  0.42970734  0.93782703     0.07600
N371        N  0.81156743  0.49433444  0.09214191    -0.45850
C372        C  0.95012905  0.49930389  0.85204795     0.43240
N373        N  0.96901753  0.49069270  0.80715149     0.02130
C374        C  0.12443590  0.50605549  0.77211536    -0.05740
H375        H  0.06724147  0.60658177  0.81099746     0.07630
C376        C  0.00424171  0.60356736  0.71016440    -0.06090
Co377      Co  0.03857111  0.49021128  0.81031985     0.74180
N378        N  0.05716440  0.55689658  0.80538504    -0.25270
Co379      Co  0.06529868  0.54629333  0.75912526     0.74070
C380        C  0.02229005  0.62798209  0.72988525     0.43350
N381        N  0.95543090  0.53274976  0.72306597     0.01750
N382        N  0.03679651  0.58075671  0.74243442     0.01860
N383        N  0.10694654  0.47284374  0.80790505    -0.46120
H384        H  0.99961507  0.50421059  0.87647031     0.07610
N385        N  0.04869738  0.53503019  0.82518292     0.02140
N386        N  0.07591140  0.53704654  0.71423475     0.01880
C387        C  0.11275949  0.50824087  0.69434553     0.43490
N388        N  0.94558613  0.51340316  0.74481277    -0.24730
C389        C  0.03496275  0.41832831  0.80579818    -0.05650
N390        N  0.94217949  0.49331429  0.82160817    -0.45830
N391        N  0.10654090  0.53433467  0.71051950    -0.46060
C392        C  0.01266260  0.39560017  0.79063141     0.43260
N393        N  0.08313392  0.48710393  0.79307628     0.02130
N394        N  0.97246316  0.46425285  0.71530623    -0.24750
N395        N  0.99395506  0.49449965  0.82642018    -0.25240
N396        N  0.99746864  0.47182706  0.70015182     0.01770
H397        H  0.94886039  0.42325793  0.72693078     0.07660
H398        H  0.07322752  0.47365463  0.67421239     0.07690
N399        N  0.09304751  0.50842752  0.77347286    -0.25290
N400        N  0.01552199  0.57460995  0.71946708    -0.24900
N401        N  0.00261677  0.44203227  0.77373299     0.02130
C402        C  0.05214788  0.57673172  0.85292668     0.43530
C403        C  0.91626496  0.51969331  0.75301099    -0.06160
N404        N  0.05793262  0.51636498  0.69876556    -0.24900
H405        H  0.98618496  0.60735281  0.69177205     0.07680
N406        N  0.04487160  0.54598269  0.85392830    -0.46130
H407        H  0.90313240  0.50622322  0.76971580     0.07660
C408        C  0.99123412  0.41955477  0.69702104     0.43360
C409        C  0.98443451  0.50036294  0.85561460    -0.05650
Co410      Co  0.97227066  0.47799139  0.76060380     0.73820
N411        N  0.93284826  0.55523695  0.71812869    -0.45840
C412        C  0.13376512  0.48729987  0.79921811     0.43630
N413        N  0.99503473  0.41226329  0.76998118    -0.45830
Co414      Co  0.00641397  0.52385027  0.70745721     0.73890
C415        C  0.07947624  0.49559360  0.68617854    -0.06160
C416        C  0.06035356  0.58428571  0.82091003    -0.05720
N417        N  0.02645489  0.44622387  0.79417079    -0.25250
N418        N  0.04149519  0.61091172  0.74888030    -0.46010
H419        H  0.13942753  0.52251978  0.76031237     0.07640
C420        C  0.96448078  0.43449756  0.71101018    -0.06140
Cl421      Cl  0.01986548  0.51079769  0.75974711    -0.49140
C422        C  0.90709717  0.54801527  0.73662357     0.43390
H423        H  0.05106816  0.41566789  0.82603311     0.07600
N424        N  0.01171206  0.44468370  0.69094892    -0.45850
C425        C  0.27454481  0.51544501  0.88683309     0.43240
N426        N  0.26534760  0.54033404  0.93069219     0.02130
C427        C  0.28162039  0.48768121  0.08601054    -0.05740
H428        H  0.22917538  0.41626219  0.00972910     0.07630
C429        C  0.14414552  0.48923170  0.99593643    -0.06090
Co430      Co  0.29536150  0.51751663  0.99355385     0.74180
N431        N  0.25597414  0.45812931  0.00355261    -0.25270
Co432      Co  0.23516479  0.48571420  0.03438348     0.74070
C433        C  0.14738963  0.45545756  0.99799738     0.43350
N434        N  0.17865227  0.54897297  0.96158113     0.01750
N435        N  0.19061410  0.47650552  0.01457635     0.01860
N436        N  0.31090070  0.52910349  0.07158251    -0.46120
H437        H  0.30831830  0.48113560  0.91522747     0.07610
N438        N  0.28246809  0.46593642  0.99003068     0.02140
N439        N  0.21664169  0.51748705  0.06546939     0.01880
C440        C  0.20184596  0.53823394  0.10890696     0.43490
N441        N  0.20073636  0.55996414  0.94370138    -0.24730
C442        C  0.31620911  0.59433081  0.01488856    -0.05650
N443        N  0.25836862  0.53873108  0.90025770    -0.45830
N444        N  0.22087287  0.51661743  0.09621952    -0.46060
C445        C  0.30798752  0.62559354  0.99875435     0.43260
N446        N  0.29772977  0.51419563  0.04590061     0.02130
N447        N  0.22406991  0.60143816  0.99115046    -0.24750
N448        N  0.28615216  0.51932647  0.94119139    -0.25240
N449        N  0.20443887  0.58980852  0.01140776     0.01770
H450        H  0.23906572  0.64916293  0.98186654     0.07660
H451        H  0.16928546  0.57329434  0.08156644     0.07690
N452        N  0.27821968  0.49257552  0.05542440    -0.25290
N453        N  0.17205631  0.50008169  0.00652005    -0.24900
N454        N  0.28755222  0.58522344  0.97381269     0.02130
C455        C  0.27402727  0.41518415  0.98171168     0.43530
C456        C  0.19008377  0.56095789  0.91423253    -0.06160
N457        N  0.19729449  0.53993827  0.05630026    -0.24900
H458        H  0.12446951  0.50328872  0.98696135     0.07680
N459        N  0.29471718  0.43992979  0.97634640    -0.46130
H460        H  0.20333096  0.56815166  0.89429101     0.07660
C461        C  0.20653211  0.63855408  0.02277597     0.43360
C462        C  0.29326170  0.50174320  0.91482833    -0.05650
Co463      Co  0.24445028  0.57157848  0.95944890     0.73820
N464        N  0.15345457  0.53893815  0.94493822    -0.45840
C465        C  0.30136387  0.51280503  0.09801290     0.43630
N466        N  0.29110378  0.61585574  0.97359255    -0.45830
Co467      Co  0.18722464  0.54514543  0.00910029     0.73890
C468        C  0.18694023  0.55480687  0.08187898    -0.06160
C469        C  0.24857495  0.42824148  0.99892743    -0.05720
N470        N  0.30311330  0.57010860  0.99637605    -0.25250
N471        N  0.17679782  0.44873294  0.00957285    -0.46010
H472        H  0.26505659  0.47414868  0.09904602     0.07640
C473        C  0.22631225  0.63264292  0.99595452    -0.06140
Cl474      Cl  0.24077105  0.52953532  0.99875834    -0.49140
C475        C  0.15949093  0.54647967  0.91504200     0.43390
H476        H  0.32896007  0.59109344  0.03725933     0.07600
N477        N  0.19377544  0.61101483  0.03076670    -0.45850
C478        C  0.90241638  0.48873981  0.19665005     0.43240
N479        N  0.94047617  0.52233581  0.20083276     0.02130
C480        C  0.09299561  0.47895613  0.19078976    -0.05740
H481        H  0.02388047  0.39504780  0.23057550     0.07630
C482        C  0.98583745  0.44863832  0.30178205    -0.06090
Co483      Co  0.99862799  0.49791018  0.17518659     0.74180
N484        N  0.01361289  0.44160855  0.21400841    -0.25270
Co485      Co  0.04399913  0.47136259  0.23859653     0.74070
C486        C  0.00309823  0.41760898  0.29519924     0.43350
N487        N  0.95445768  0.52864129  0.28532106     0.01750
N488        N  0.02870903  0.45840178  0.27990097     0.01860
N489        N  0.06563955  0.50121668  0.14971407    -0.46120
H490        H  0.92981075  0.45793831  0.16239834     0.07610
N491        N  0.99603635  0.45208751  0.19013474     0.02140
N492        N  0.07088853  0.50195178  0.26231861     0.01880
C493        C  0.11567467  0.52562890  0.27196142     0.43490
N494        N  0.94457189  0.54711043  0.26252695    -0.24730
C495        C  0.01616623  0.56083830  0.14052744    -0.05650
N496        N  0.91220751  0.51542247  0.21070623    -0.45830
N497        N  0.10101179  0.50213616  0.25686587    -0.46060
C498        C  0.01614062  0.59388559  0.15146362     0.43260
N499        N  0.04697506  0.49387347  0.17291018     0.02130
N500        N  0.99446853  0.58536764  0.24864473    -0.24750
N501        N  0.95090409  0.50111018  0.18120456    -0.25240
N502        N  0.00910162  0.57812556  0.27556788     0.01770
H503        H  0.98087971  0.62771514  0.22456102     0.07660
H504        H  0.08899853  0.56347584  0.30199489     0.07690
N505        N  0.06290905  0.48240158  0.19736219    -0.25290
N506        N  0.00501946  0.47321342  0.29255559    -0.24900
N507        N  0.99297066  0.56537093  0.18472963     0.02130
C508        C  0.98736793  0.40232639  0.18983818     0.43530
C509        C  0.91393671  0.55260041  0.26314905    -0.06160
N510        N  0.06081823  0.52440836  0.28122244    -0.24900
H511        H  0.96239801  0.45150667  0.31090677     0.07680
N512        N  0.97994377  0.42953215  0.17537472    -0.46130
H513        H  0.90118899  0.56452408  0.24417815     0.07660
C514        C  0.01100764  0.62971106  0.26964341     0.43360
C515        C  0.92800499  0.47942832  0.17610784    -0.05650
Co516      Co  0.96844205  0.55515177  0.22348296     0.73820
N517        N  0.92873776  0.51679628  0.29946504    -0.45840
C518        C  0.09480019  0.49173854  0.15989791     0.43630
N519        N  0.00147547  0.59422745  0.17874604    -0.45830
Co520      Co  0.00747774  0.52598492  0.28671577     0.73890
C521        C  0.08819529  0.54175339  0.28835293    -0.06160
C522        C  0.00973788  0.41050936  0.21570814    -0.05720
N523        N  0.00210038  0.54489016  0.16362480    -0.25250
N524        N  0.02941746  0.42783088  0.28293741    -0.46010
H525        H  0.11166930  0.47003717  0.20643848     0.07640
C526        C  0.99400446  0.61604726  0.24352087    -0.06140
Cl527      Cl  0.00521682  0.51301994  0.23145993    -0.49140
C528        C  0.90182285  0.53135900  0.28594132     0.43390
H529        H  0.02738816  0.55051381  0.12035964     0.07600
N530        N  0.01998656  0.60511645  0.28960459    -0.45850
C531        C  0.90158037  0.22491854  0.01976868     0.43240
N532        N  0.93650468  0.22795232  0.98316622     0.02130
C533        C  0.09280757  0.28205077  0.97850918    -0.05740
H534        H  0.04752801  0.30716130  0.08713166     0.07630
C535        C  0.97462729  0.37111771  0.04365772    -0.06090
Co536      Co  0.00719151  0.23533868  0.99549551     0.74180
N537        N  0.03212093  0.27807332  0.04760607    -0.25270
Co538      Co  0.03777525  0.30817600  0.00958487     0.74070
C539        C  0.99871287  0.36958606  0.06962210     0.43350
N540        N  0.92907207  0.32166704  0.99273325     0.01750
N541        N  0.01325031  0.34110322  0.03165142     0.01860
N542        N  0.08029470  0.23051425  0.97219240    -0.46120
H543        H  0.94369799  0.23083266  0.05722530     0.07610
N544        N  0.01754104  0.25052137  0.04477611     0.02140
N545        N  0.04028979  0.33789146  0.97177633     0.01880
C546        C  0.05842504  0.37330062  0.94147173     0.43490
N547        N  0.91811675  0.29405177  0.98272421    -0.24730
C548        C  0.01764770  0.22780059  0.91662332    -0.05650
N549        N  0.90646399  0.22396723  0.98893796    -0.45830
N550        N  0.06657048  0.34966863  0.96110480    -0.46060
C551        C  0.99662354  0.23303885  0.88705653     0.43260
N552        N  0.05599929  0.24666345  0.98411932     0.02130
N553        N  0.94656362  0.29975963  0.92318075    -0.24750
N554        N  0.95608567  0.22753738  0.00772323    -0.25240
N555        N  0.95600821  0.32813095  0.93188317     0.01770
H556        H  0.93237236  0.27953026  0.87790728     0.07660
H557        H  0.00786061  0.38997413  0.92730468     0.07690
N558        N  0.06397758  0.27636770  0.98816262    -0.25290
N559        N  0.98599744  0.35217838  0.02125046    -0.24900
N560        N  0.97043888  0.23557888  0.93034385     0.02130
C561        C  0.02286676  0.26049535  0.09602993     0.43530
C562        C  0.88847602  0.29103356  0.99118554    -0.06160
N563        N  0.01468539  0.35191560  0.96014443    -0.24900
H564        H  0.95239754  0.38381749  0.04212926     0.07680
N565        N  0.01067973  0.23938303  0.07350502    -0.46130
H566        H  0.87229462  0.27370890  0.98118115     0.07660
C567        C  0.94990611  0.33030746  0.88223194     0.43360
C568        C  0.93593983  0.22743285  0.03288854    -0.05650
Co569      Co  0.94280510  0.26418680  0.95457516     0.73820
N570        N  0.90780974  0.33781783  0.00785261    -0.45840
C571        C  0.10379101  0.25241435  0.96723526     0.43630
N572        N  0.96835064  0.23678688  0.89945524    -0.45830
Co573      Co  0.97064932  0.33951896  0.97652639     0.73890
C574        C  0.02358644  0.37366245  0.93957039    -0.06160
C575        C  0.03717091  0.28540439  0.07815119    -0.05720
N576        N  0.99875251  0.22894784  0.94263843    -0.25250
N577        N  0.02184276  0.35120881  0.05977822    -0.46010
H578        H  0.10542149  0.30424745  0.98098255     0.07640
C579        C  0.94082197  0.29931265  0.89205834    -0.06140
Cl580      Cl  0.99005919  0.28668143  0.98407615    -0.49140
C581        C  0.88106951  0.32026842  0.00675260     0.43390
H582        H  0.04326553  0.22703157  0.91799929     0.07600
N583        N  0.95855426  0.34723528  0.90798748    -0.45850
C584        C  0.90071992  0.72455925  0.02196031     0.43240
N585        N  0.94368559  0.73148718  0.99807827     0.02130
C586        C  0.09351223  0.72163592  0.06506259    -0.05740
H587        H  0.03469270  0.75494576  0.13765381     0.07630
C588        C  0.98256972  0.82544396  0.07409613    -0.06090
Co589      Co  0.99987218  0.71024637  0.03488709     0.74180
N590        N  0.01451378  0.75092054  0.09050647    -0.25270
Co591      Co  0.04649850  0.77246346  0.06183477     0.74070
C592        C  0.99884058  0.82384270  0.10706477     0.43350
N593        N  0.96048982  0.81344157  0.99067572     0.01750
N594        N  0.03120410  0.81629024  0.06919372     0.01860
N595        N  0.06638600  0.67974559  0.04432883    -0.46120
H596        H  0.92718296  0.69948707  0.06317774     0.07610
N597        N  0.99328788  0.73137791  0.07785247     0.02140
N598        N  0.07607493  0.79163771  0.03220901     0.01880
C599        C  0.11960415  0.79609183  0.00781518     0.43490
N600        N  0.95247772  0.79110734  0.97047063    -0.24730
C601        C  0.01549774  0.66306893  0.98216634    -0.05650
N602        N  0.91288051  0.73627131  0.99589124    -0.45830
N603        N  0.10654028  0.78510251  0.03355240    -0.46060
C604        C  0.01400319  0.66405845  0.94766815     0.43260
N605        N  0.04820602  0.70511947  0.04587530     0.02130
N606        N  0.00538516  0.77202869  0.94142242    -0.24750
N607        N  0.95274546  0.71694065  0.02398101    -0.25240
N608        N  0.02025527  0.79835986  0.94957240     0.01770
H609        H  0.99655890  0.74541734  0.89933188     0.07660
H610        H  0.09218840  0.82078205  0.96599286     0.07690
N611        N  0.06438655  0.72970607  0.05648927    -0.25290
N612        N  0.00571980  0.82242970  0.05186560    -0.24900
N613        N  0.99848358  0.70816243  0.96575090     0.02130
C614        C  0.99415795  0.71930400  0.12681660     0.43530
C615        C  0.92227330  0.79188109  0.96183380    -0.06160
N616        N  0.06570677  0.80736128  0.00714741    -0.24900
H617        H  0.95737621  0.82622519  0.06846706     0.07680
N618        N  0.97904843  0.71477809  0.09881950    -0.46130
H619        H  0.91076747  0.77268250  0.94881577     0.07660
C620        C  0.03077692  0.78731373  0.89997611     0.43360
C621        C  0.92723751  0.71123933  0.04064396    -0.05650
Co622      Co  0.97551793  0.75029343  0.96867209     0.73820
N623        N  0.93360966  0.82713590  0.00064721    -0.45840
C624        C  0.09511926  0.68899596  0.05676494     0.43630
N625        N  0.00317646  0.69268526  0.93939407    -0.45830
Co626      Co  0.01305105  0.81375733  0.99989461     0.73890
C627        C  0.09216576  0.81095639  0.98944550    -0.06160
C628        C  0.01646964  0.74543135  0.12161590    -0.05720
N629        N  0.00582102  0.69162574  0.99097323    -0.25250
N630        N  0.02886185  0.82018054  0.09964040    -0.46010
H631        H  0.11180046  0.73730720  0.07473391     0.07640
C632        C  0.00897474  0.76455450  0.91160708    -0.06140
Cl633      Cl  0.00925909  0.76172821  0.01565570    -0.49140
C634        C  0.90817728  0.81411207  0.98278624     0.43390
H635        H  0.02124586  0.64420807  0.99828556     0.07600
N636        N  0.03682517  0.80850316  0.92480751    -0.45850
C637        C  0.62357985  0.72580148  0.98311037     0.43240
N638        N  0.58604175  0.73564831  0.01493338     0.02130
C639        C  0.42847242  0.78732799  0.99422765    -0.05740
H640        H  0.49201899  0.81335036  0.90400443     0.07630
C641        C  0.56571593  0.87342319  0.96728526    -0.06090
Co642      Co  0.51581149  0.73758587  0.99466948     0.74180
N643        N  0.50195243  0.78252057  0.94269484    -0.25270
Co644      Co  0.49217861  0.81183380  0.97994654     0.74070
C645        C  0.55499069  0.86651632  0.93432940     0.43350
N646        N  0.59507269  0.82888136  0.02800894     0.01750
N647        N  0.52707242  0.84045669  0.96608584     0.01860
N648        N  0.43747076  0.73547195  0.00230062    -0.46120
H649        H  0.58493318  0.72139031  0.94183156     0.07610
N650        N  0.51337683  0.75384204  0.94564441     0.02140
N651        N  0.48134832  0.84168176  0.01701831     0.01880
C652        C  0.45593883  0.86821187  0.05114909     0.43490
N653        N  0.60547194  0.79996034  0.03221997    -0.24730
C654        C  0.49794809  0.72106368  0.07147494    -0.05650
N655        N  0.61643119  0.73230827  0.01244443    -0.45830
N656        N  0.45268261  0.85086480  0.02432078    -0.46060
C657        C  0.51788363  0.72271366  0.10251975     0.43260
N658        N  0.46503351  0.75094871  0.99827814     0.02130
N659        N  0.56429880  0.79720526  0.08250798    -0.24750
N660        N  0.56825704  0.72960340  0.98954601    -0.25240
N661        N  0.55374174  0.82578297  0.07671857     0.01770
H662        H  0.58665388  0.77707218  0.12357657     0.07660
H663        H  0.50202540  0.88013197  0.07989541     0.07690
N664        N  0.45918779  0.78104327  0.99332794    -0.25290
N665        N  0.54733093  0.85528497  0.98510700    -0.24900
N666        N  0.54510722  0.73345665  0.06156088     0.02130
C667        C  0.51290144  0.76465171  0.89484353     0.43530
C668        C  0.63688445  0.79988001  0.02895665    -0.06160
N669        N  0.50328223  0.85257025  0.03705036    -0.24900
H670        H  0.58568358  0.88758388  0.97583932     0.07680
N671        N  0.52118900  0.74217136  0.91717175    -0.46130
H672        H  0.65254908  0.78018181  0.03283931     0.07660
C673        C  0.56461531  0.82563240  0.12606424     0.43360
C674        C  0.59052817  0.72429728  0.96680258    -0.05650
Co675      Co  0.57487885  0.76604581  0.04742288     0.73820
N676        N  0.61751949  0.84912691  0.02289729    -0.45840
C677        C  0.41346384  0.75771305  0.99997214     0.43630
N678        N  0.54604297  0.72957154  0.09190140    -0.45830
Co679      Co  0.54963655  0.84162750  0.03187672     0.73890
C680        C  0.48968532  0.86922920  0.05976248    -0.06160
C681        C  0.49995066  0.79060714  0.91247027    -0.05720
N682        N  0.51778806  0.72730067  0.04683536    -0.25250
N683        N  0.53201241  0.84516573  0.93632173    -0.46010
H684        H  0.41765287  0.80991506  0.98908477     0.07640
C685        C  0.57267738  0.79542513  0.11295077    -0.06140
Cl686      Cl  0.53275311  0.78893227  0.01347237    -0.49140
C687        C  0.64441842  0.83265653  0.02291000     0.43390
H688        H  0.47247308  0.71829814  0.06875638     0.07600
N689        N  0.55370655  0.84371532  0.10215201    -0.45850
C690        C  0.48876046  0.92507320  0.83707031     0.43240
N691        N  0.47896607  0.97142200  0.82192639     0.02130
C692        C  0.43423474  0.04698207  0.69742630    -0.05740
H693        H  0.55943936  0.96175810  0.69287867     0.07630
C694        C  0.59833114  0.04430356  0.76909876    -0.06090
Co695      Co  0.46072523  0.97842951  0.75459664     0.74180
N696        N  0.51610024  0.97798240  0.71473441    -0.25270
Co697      Co  0.51147922  0.03124037  0.71684859     0.74070
C698        C  0.61331370  0.03342505  0.74156686     0.43350
N699        N  0.54444792  0.03209443  0.82282625     0.01750
N700        N  0.56221588  0.03255559  0.73246173     0.01860
N701        N  0.41539604  0.99961033  0.70857300    -0.46120
H702        H  0.48139155  0.90483725  0.78627363     0.07610
N703        N  0.49557074  0.96080700  0.73013306     0.02140
N704        N  0.51001032  0.08431499  0.72562639     0.01880
C705        C  0.51893253  0.13623447  0.73133801     0.43490
N706        N  0.52459429  0.01812116  0.84104901    -0.24730
C707        C  0.39475305  0.00469224  0.77247804    -0.05650
N708        N  0.48668977  0.95487777  0.84668315    -0.45830
N709        N  0.50326718  0.11287809  0.71259194    -0.46060
C710        C  0.38415361  0.02731298  0.79592502     0.43260
N711        N  0.44603551  0.00131852  0.71469917     0.02130
N712        N  0.47526955  0.06542609  0.82445997    -0.24750
N713        N  0.47547149  0.95480465  0.79568781    -0.25240
N714        N  0.49517303  0.08126330  0.80787450     0.01770
H715        H  0.43046336  0.07763183  0.84461146     0.07660
H716        H  0.55450833  0.12666117  0.77162004     0.07690
N717        N  0.45941543  0.02809297  0.70671028    -0.25290
N718        N  0.56765638  0.04234261  0.76177309    -0.24900
N719        N  0.43310358  0.01697092  0.80493338     0.02130
C720        C  0.52685708  0.92399416  0.71541586     0.43530
C721        C  0.54193617  0.00227416  0.86338223    -0.06160
N722        N  0.52683002  0.08976300  0.75148913    -0.24900
H723        H  0.60895843  0.05460259  0.79047810     0.07680
N724        N  0.50077587  0.93039570  0.73068588    -0.46130
H725        H  0.53268291  0.98678438  0.88096367     0.07660
C726        C  0.45684228  0.11360664  0.81586956     0.43360
C727        C  0.48189672  0.92444974  0.80274568    -0.05650
Co728      Co  0.47763250  0.01819247  0.82446215     0.73820
N729        N  0.57402360  0.02540837  0.82951865    -0.45840
C730        C  0.40415129  0.02728617  0.69888953     0.43630
N731        N  0.40907789  0.03260921  0.81574028    -0.45830
Co732      Co  0.53345981  0.06084163  0.78680323     0.73890
C733        C  0.53734120  0.11884064  0.75376120    -0.06160
C734        C  0.53791692  0.95613193  0.70474635    -0.05720
N735        N  0.42569658  0.00065453  0.77923919    -0.25250
N736        N  0.58991293  0.02654911  0.71885506    -0.46010
H737        H  0.43616953  0.07168597  0.69162890     0.07640
C738        C  0.45087931  0.08403198  0.83143063    -0.06140
Cl739      Cl  0.49612837  0.02158977  0.76991332    -0.49140
C740        C  0.57518995  0.00690781  0.85463083     0.43390
H741        H  0.38113087  0.99296678  0.75385234     0.07600
N742        N  0.48434294  0.10959992  0.80128644    -0.45850
C743        C  0.45998523  0.22572432  0.88414256     0.43240
N744        N  0.49506033  0.23474004  0.92134337     0.02130
C745        C  0.50207216  0.19725496  0.07136296    -0.05740
H746        H  0.38821365  0.24215789  0.02716483     0.07630
C747        C  0.42683332  0.31872489  0.98216041    -0.06090
Co748      Co  0.48337733  0.19696063  0.97693006     0.74180
N749        N  0.43060071  0.22477471  0.00889812    -0.25270
Co750      Co  0.46270024  0.24841175  0.03511858     0.74070
C751        C  0.39684433  0.30652877  0.99666682     0.43350
N752        N  0.50419648  0.31531136  0.94705965     0.01750
N753        N  0.44000575  0.29090635  0.02252804     0.01860
N754        N  0.51344585  0.16398741  0.03133816    -0.46120
H755        H  0.43317088  0.19184244  0.91505579     0.07610
N756        N  0.43735705  0.20621198  0.98544626     0.02140
N757        N  0.49336321  0.27225084  0.06141848     0.01880
C758        C  0.50710380  0.29000794  0.10769943     0.43490
N759        N  0.52140392  0.29347133  0.93467476    -0.24730
C760        C  0.54757494  0.16096965  0.96890673    -0.05650
N761        N  0.48598779  0.24301404  0.89242294    -0.45830
N762        N  0.49308122  0.26678846  0.09169571    -0.46060
C763        C  0.57820497  0.17118515  0.95745100     0.43260
N764        N  0.49259739  0.18562050  0.02252293     0.02130
N765        N  0.56512072  0.27429337  0.97908525    -0.24750
N766        N  0.47554660  0.21424973  0.93306712    -0.25240
N767        N  0.55698723  0.29687956  0.99913571     0.01770
H768        H  0.60894510  0.25180515  0.96740455     0.07660
H769        H  0.52863008  0.33484790  0.08425567     0.07690
N770        N  0.48620517  0.20602775  0.04512485    -0.25290
N771        N  0.45242188  0.30876556  0.00076918    -0.24900
N772        N  0.54788926  0.21041346  0.95904759     0.02130
C773        C  0.38773155  0.21297326  0.98180646     0.43530
C774        C  0.52671562  0.29713292  0.90502807    -0.06160
N775        N  0.50680328  0.29874233  0.05293201    -0.24900
H776        H  0.42864983  0.33136280  0.96025181     0.07680
N777        N  0.41187508  0.19786523  0.96836976    -0.46130
H778        H  0.53836823  0.27945230  0.89093212     0.07660
C779        C  0.60831921  0.28927148  0.00614327     0.43360
C780        C  0.45135268  0.20952286  0.91264216    -0.05650
Co781      Co  0.53256921  0.25296424  0.94907899     0.73820
N782        N  0.49399810  0.33404527  0.92270687    -0.45840
C783        C  0.52119358  0.17037028  0.06161077     0.43630
N784        N  0.57645421  0.20185927  0.95203385    -0.45830
Co785      Co  0.50492743  0.30789649  0.00023949     0.73890
C786        C  0.51698400  0.31216364  0.08155965    -0.06160
C787        C  0.39982664  0.22852648  0.00972115    -0.05720
N788        N  0.52998473  0.18735080  0.96812054    -0.25250
N789        N  0.40870635  0.29150073  0.02207804    -0.46010
H790        H  0.50238268  0.20970779  0.09364665     0.07640
C791        C  0.59616525  0.26861883  0.98141836    -0.06140
Cl792      Cl  0.49634766  0.25187962  0.99084035    -0.49140
C793        C  0.50850022  0.32299371  0.89524570     0.43390
H794        H  0.53954578  0.13776883  0.97525595     0.07600
N795        N  0.58278472  0.30639357  0.01656597    -0.45850
C796        C  0.49531916  0.90264462  0.17774596     0.43240
N797        N  0.47100433  0.94134578  0.19630143     0.02130
C798        C  0.53115083  0.09127239  0.18362980    -0.05740
H799        H  0.61130596  0.01727558  0.20245780     0.07630
C800        C  0.57565243  0.98132726  0.30069935    -0.06090
Co801      Co  0.49527213  0.00185532  0.17379405     0.74180
N802        N  0.56128217  0.00980592  0.19757407    -0.25270
Co803      Co  0.54200586  0.03876989  0.23070010     0.74070
C804        C  0.60596463  0.98993568  0.28387751     0.43350
N805        N  0.49224217  0.95073862  0.28497118     0.01750
N806        N  0.56434152  0.01445204  0.26476584     0.01860
N807        N  0.49957718  0.06666223  0.14674716    -0.46120
H808        H  0.52343752  0.93346665  0.14466317     0.07610
N809        N  0.54310597  0.99493312  0.17639876     0.02140
N810        N  0.52148861  0.06685532  0.26347396     0.01880
C811        C  0.49858269  0.11091669  0.27664882     0.43490
N812        N  0.47087248  0.94065510  0.26378651    -0.24730
C813        C  0.42977735  0.03283178  0.16315687    -0.05650
N814        N  0.47398006  0.91069282  0.19842478    -0.45830
N815        N  0.52102766  0.09759417  0.25945735    -0.46060
C816        C  0.40096723  0.03215315  0.18093274     0.43260
N817        N  0.50315614  0.04964966  0.17251297     0.02130
N818        N  0.43054786  0.98915385  0.26344953    -0.24750
N819        N  0.48889891  0.95393549  0.17519841    -0.25240
N820        N  0.44358818  0.00821723  0.28469161     0.01770
H821        H  0.38450743  0.97420977  0.24788728     0.07660
H822        H  0.46447822  0.08244943  0.30811135     0.07690
N823        N  0.52156584  0.06348877  0.19427759    -0.25290
N824        N  0.55066230  0.99828493  0.28687758    -0.24900
N825        N  0.43115489  0.99589431  0.19759863     0.02130
C826        C  0.59010176  0.98543798  0.16242422     0.43530
C827        C  0.46635381  0.90999813  0.26504170    -0.06160
N828        N  0.50111618  0.05621723  0.28381610    -0.24900
H829        H  0.57326847  0.96439829  0.31939174     0.07680
N830        N  0.55933988  0.98010809  0.15511311    -0.46130
H831        H  0.45047410  0.89685290  0.24913647     0.07660
C832        C  0.39117175  0.01177882  0.28550027     0.43360
C833        C  0.50493740  0.93079311  0.16136014    -0.05650
Co834      Co  0.45108349  0.96680635  0.23001507     0.73820
N835        N  0.50648927  0.92523422  0.29808928    -0.45840
C836        C  0.51605857  0.09343642  0.15241260     0.43630
N837        N  0.40311149  0.00840278  0.20107738    -0.45830
Co838      Co  0.49726230  0.00370576  0.28786622     0.73890
C839        C  0.48488295  0.08276211  0.29340479    -0.06160
C840        C  0.59151472  0.00515094  0.19089037    -0.05720
N841        N  0.44749681  0.00979868  0.17588017    -0.25250
N842        N  0.59507423  0.01043424  0.26265819    -0.46010
H843        H  0.54963796  0.10592038  0.19455046     0.07640
C844        C  0.39959873  0.98788169  0.26419088    -0.06140
Cl845      Cl  0.49652682  0.00287216  0.23103193    -0.49140
C846        C  0.49046458  0.89849792  0.28631653     0.43390
H847        H  0.43726398  0.04992135  0.14618640     0.07600
N848        N  0.41972682  0.02459627  0.29788457    -0.45850
C849        C  0.31807104  0.07358702  0.09598592     0.43240
N850        N  0.31439346  0.05946730  0.04790726     0.02130
C851        C  0.20299353  0.09131341  0.94929875    -0.05740
H852        H  0.20145335  0.97732524  0.06095335     0.07630
C853        C  0.26263191  0.92548117  0.99233304    -0.06090
Co854      Co  0.25002963  0.07415038  0.02388023     0.74180
N855        N  0.21123529  0.02079755  0.03573174    -0.25270
Co856      Co  0.21630307  0.01434567  0.98266552     0.74070
C857        C  0.23344180  0.91296365  0.00189237     0.43350
N858        N  0.32203756  0.97571147  0.00515507     0.01750
N859        N  0.22770548  0.96361147  0.99239408     0.01860
N860        N  0.20623194  0.11412291  0.99558166    -0.46120
H861        H  0.26668739  0.08956256  0.09694850     0.07610
N862        N  0.22164535  0.04767194  0.04819390     0.02140
N863        N  0.23019840  0.00677175  0.93374020     0.01880
C864        C  0.23849520  0.00468994  0.88287449     0.43490
N865        N  0.33554504  0.00054178  0.01894164    -0.24730
C866        C  0.27354115  0.12243264  0.97957327    -0.05650
N867        N  0.33459055  0.06125380  0.07222846    -0.45830
N868        N  0.21865372  0.01647137  0.90532921    -0.46060
C869        C  0.30069032  0.12930614  0.96209611     0.43260
N870        N  0.21172663  0.08372952  0.99734314     0.02130
N871        N  0.33518475  0.03193750  0.95803455    -0.24750
N872        N  0.28615021  0.06940131  0.05500883    -0.25240
N873        N  0.32189774  0.00625804  0.94677033     0.01770
H874        H  0.36672795  0.06550551  0.93746265     0.07660
H875        H  0.28334831  0.97608057  0.89069239     0.07690
N876        N  0.20781148  0.06725315  0.97153219    -0.25290
N877        N  0.25723590  0.95564268  0.98749682    -0.24900
N878        N  0.30768858  0.08637455  0.98641918     0.02130
C879        C  0.21388810  0.02256341  0.09137721     0.43530
C880        C  0.35624614  0.99097153  0.04134979    -0.06160
N881        N  0.25696901  0.99098776  0.93060999    -0.24900
H882        H  0.28439565  0.91334149  0.98733180     0.07680
N883        N  0.22268804  0.04967419  0.07904570    -0.46130
H884        H  0.36962958  0.00671982  0.05694798     0.07660
C885        C  0.34811822  0.02198927  0.90827743     0.43360
C886        C  0.28629592  0.07918219  0.08483772    -0.05650
Co887      Co  0.32451207  0.04520767  0.00326417     0.73820
N888        N  0.33426123  0.94900447  0.01559091    -0.45840
C889        C  0.20241277  0.12430665  0.96613402     0.43630
N890        N  0.32152406  0.10570663  0.96710040    -0.45830
Co891      Co  0.28923003  0.98180441  0.96783890     0.73890
C892        C  0.26279325  0.98737445  0.90007875    -0.06160
C893        C  0.20654162  0.00234529  0.06191753    -0.05720
N894        N  0.27952122  0.09621241  0.99422361    -0.25250
N895        N  0.21175419  0.93764867  0.00136865    -0.46010
H896        H  0.20118534  0.08715142  0.92410808     0.07640
C897        C  0.35285349  0.04407867  0.93529153    -0.06140
Cl898      Cl  0.26977997  0.02817484  0.99471010    -0.49140
C899        C  0.35633878  0.95647158  0.03849136     0.43390
H900        H  0.25796929  0.13865796  0.98922601     0.07600
N901        N  0.32938218  0.99935539  0.91814629    -0.45850
C902        C  0.79575737  0.91602348  0.99989702     0.43240
N903        N  0.78688230  0.95960452  0.97558679     0.02130
C904        C  0.76234315  0.11087292  0.04303585    -0.05740
H905        H  0.72346454  0.02713070  0.10480789     0.07630
C906        C  0.64958098  0.99452976  0.01658063    -0.06090
Co907      Co  0.79766479  0.02304567  0.01092072     0.74180
N908        N  0.75343114  0.02446180  0.06560918    -0.25270
Co909      Co  0.72808035  0.05086181  0.03475320     0.74070
C910        C  0.65053484  0.99640896  0.05088002     0.43350
N911        N  0.69701225  0.97287552  0.95518346     0.01750
N912        N  0.69063008  0.02055602  0.03481306     0.01860
N913        N  0.80618490  0.10224380  0.01557522    -0.46120
H914        H  0.81243585  0.94446448  0.04513287     0.07610
N915        N  0.78113937  0.01196860  0.05972507     0.02140
N916        N  0.70475908  0.07898704  0.00311871     0.01880
C917        C  0.69134254  0.11957714  0.97665820     0.43490
N918        N  0.72383719  0.96056529  0.94659113    -0.24730
C919        C  0.80620114  0.05850980  0.93837235    -0.05650
N920        N  0.78513781  0.92887275  0.97315011    -0.45830
N921        N  0.70418323  0.11003396  0.00436046    -0.46060
C922        C  0.80724459  0.04462814  0.90483635     0.43260
N923        N  0.79101185  0.07467981  0.02053831     0.02130
N924        N  0.73696368  0.01369998  0.91335461    -0.24750
N925        N  0.79888594  0.97080184  0.00265522    -0.25240
N926        N  0.71540115  0.03219803  0.92512023     0.01770
H927        H  0.74059895  0.99331905  0.86695724     0.07660
H928        H  0.67157258  0.08916015  0.93516767     0.07690
N929        N  0.76456737  0.08078515  0.03466547    -0.25290
N930        N  0.67581789  0.01015376  0.00886539    -0.24900
N931        N  0.80428086  0.00896728  0.94076485     0.02130
C932        C  0.76838927  0.99707165  0.10782665     0.43530
C933        C  0.72006065  0.93025993  0.93977041    -0.06160
N934        N  0.69243427  0.06749896  0.97661479    -0.24900
H935        H  0.63199247  0.98415632  0.00033486     0.07680
N936        N  0.79102400  0.99426320  0.08479136    -0.46130
H937        H  0.73842486  0.91414854  0.93272819     0.07660
C938        C  0.70149875  0.03027183  0.87597602     0.43360
C939        C  0.80471671  0.94429538  0.02049637    -0.05650
Co940      Co  0.76346570  0.98579367  0.94432633     0.73820
N941        N  0.67470829  0.95120582  0.95711002    -0.45840
C942        C  0.78893932  0.12602590  0.02998243     0.43630
N943        N  0.80802871  0.01405331  0.91077085    -0.45830
Co944      Co  0.69420820  0.02060183  0.96618508     0.73890
C945        C  0.68283542  0.09127315  0.95844858    -0.06160
C946        C  0.74481060  0.01820841  0.09454720    -0.05720
N947        N  0.80643765  0.03373434  0.95951038    -0.25250
N948        N  0.67629644  0.01289805  0.06041454    -0.46010
H949        H  0.74174272  0.12168976  0.05306198     0.07640
C950        C  0.73005015  0.01063944  0.88217212    -0.06140
Cl951      Cl  0.74601892  0.01971267  0.98968908    -0.49140
C952        C  0.68810459  0.92370473  0.94811542     0.43390
H953        H  0.80312567  0.08300922  0.94490424     0.07600
N954        N  0.69674865  0.04461831  0.90353612    -0.45850
C955        C  0.95249884  0.87379683  0.52867868     0.43240
N956        N  0.98724114  0.85956396  0.49637280     0.02130
C957        C  0.01374102  0.72671272  0.42077997    -0.05740
H958        H  0.94310469  0.70853264  0.53699763     0.07630
C959        C  0.05267152  0.77718801  0.58811677    -0.06090
Co960      Co  0.97010613  0.79809073  0.46625558     0.74180
N961        N  0.96589185  0.74599109  0.51075748    -0.25270
Co962      Co  0.01618847  0.73880550  0.49948259     0.74070
C963        C  0.02997616  0.75668701  0.60220557     0.43350
N964        N  0.06364815  0.83794249  0.54021322     0.01750
N965        N  0.02842316  0.74903079  0.55072639     0.01860
N966        N  0.97313534  0.75856323  0.40993074    -0.46120
H967        H  0.91762122  0.83535508  0.51062930     0.07610
N968        N  0.95363548  0.77280343  0.50101858     0.02140
N969        N  0.06760916  0.73395172  0.48921976     0.01880
C970        C  0.11846575  0.72722453  0.48038762     0.43490
N971        N  0.05067769  0.85967962  0.52231982    -0.24730
C972        C  0.97622792  0.82449064  0.40040551    -0.05650
N973        N  0.98150390  0.88070081  0.51854678    -0.45830
N974        N  0.08775122  0.71783827  0.47072797    -0.46060
C975        C  0.99945375  0.84398065  0.38607819     0.43260
N976        N  0.97927375  0.75754998  0.44054210     0.02130
N977        N  0.07375628  0.83527469  0.46469993    -0.24750
N978        N  0.96384739  0.83921721  0.49168152    -0.25240
N979        N  0.08964176  0.81411579  0.48120989     0.01770
H980        H  0.08213943  0.85907251  0.42143908     0.07660
H981        H  0.13255906  0.76491001  0.51581850     0.07690
N982        N  0.00258269  0.73816522  0.44880436    -0.25290
N983        N  0.04956778  0.77167891  0.55717732    -0.24900
N984        N  0.01140022  0.84134348  0.43502699     0.02130
C985        C  0.91363197  0.75379823  0.52444420     0.43530
C986        C  0.05408162  0.88750750  0.53662436    -0.06160
N987        N  0.08448790  0.75326973  0.50711621    -0.24900
H988        H  0.06823976  0.79457524  0.59941865     0.07680
N989        N  0.92458811  0.77813301  0.50896517    -0.46130
H990        H  0.04563553  0.90982035  0.52748534     0.07660
C991        C  0.11946701  0.82450036  0.44209527     0.43360
C992        C  0.94001722  0.84750575  0.50962571    -0.05650
Co993      Co  0.03090316  0.84992668  0.47901569     0.73820
N994        N  0.07585618  0.84924840  0.56717212    -0.45840
C995        C  0.99351875  0.74089123  0.39414113     0.43630
N996        N  0.01987017  0.85474817  0.40893783    -0.45830
Co997      Co  0.07169202  0.79449877  0.52220430     0.73890
C998        C  0.11501936  0.74907815  0.50531805    -0.06160
C999        C  0.94164907  0.73147026  0.52609341    -0.05720
N1000       N  0.98647123  0.82330897  0.43054817    -0.25250
N1001       N  0.01525295  0.73981077  0.57766493    -0.46010
H1002       H  0.03462516  0.71216259  0.41895595     0.07640
C1003       C  0.08950028  0.84196576  0.43899804    -0.06140
Cl1004     Cl  0.02191764  0.79495245  0.49224080    -0.49140
C1005       C  0.07070336  0.88050163  0.56623719     0.43390
H1006       H  0.95538877  0.81303877  0.39004037     0.07600
N1007       N  0.11564646  0.80553304  0.46721392    -0.45850
C1008       C  0.86005792  0.95578386  0.54231337     0.43240
N1009       N  0.83656513  0.99874126  0.53058863     0.02130
C1010       C  0.69913230  0.04726529  0.58165404    -0.05740
H1011       H  0.69318057  0.93762892  0.48549112     0.07630
C1012       C  0.74946690  0.02857717  0.40961566    -0.06090
Co1013     Co  0.77248623  0.99756567  0.55590604     0.74180
N1014       N  0.72432980  0.97096000  0.51152866    -0.25270
Co1015     Co  0.71404511  0.02252212  0.50381022     0.74070
C1016       C  0.72736405  0.00559509  0.39843345     0.43350
N1017       N  0.81056946  0.04168018  0.45423990     0.01750
N1018       N  0.72192712  0.01482315  0.45025605     0.01860
N1019       N  0.73072963  0.01136106  0.60344426    -0.46120
H1020       H  0.81568487  0.93606181  0.56512295     0.07610
N1021       N  0.74899313  0.96460842  0.53065293     0.02140
N1022       N  0.70979877  0.07486601  0.49614549     0.01880
C1023       C  0.70361289  0.12672797  0.49108655     0.43490
N1024       N  0.83341109  0.03593459  0.47520349    -0.24730
C1025       C  0.79076056  0.04562978  0.60872098    -0.05650
N1026       N  0.86435745  0.98456650  0.52981546    -0.45830
N1027       N  0.69631180  0.10057907  0.50933157    -0.46060
C1028       C  0.81410673  0.07047004  0.61351566     0.43260
N1029       N  0.73122714  0.01067958  0.57251308     0.02130
N1030       N  0.81465966  0.09097827  0.51241050    -0.24750
N1031       N  0.81488513  0.98099066  0.54283501    -0.25240
N1032       N  0.79201318  0.09724680  0.49150183     0.01770
H1033       H  0.83964779  0.11982803  0.54743485     0.07660
H1034       H  0.73692151  0.12743150  0.45082565     0.07690
N1035       N  0.71172824  0.02969073  0.55715538    -0.25290
N1036       N  0.74515327  0.03218533  0.43999664    -0.24900
N1037       N  0.81593216  0.05248312  0.56665258     0.02130
C1038       C  0.73411280  0.91733380  0.51828959     0.43530
C1039       C  0.85563291  0.01852451  0.46177518    -0.06160
N1040       N  0.72761515  0.08448151  0.47351752    -0.24900
H1041       H  0.76625494  0.04192566  0.39642500     0.07680
N1042       N  0.75518830  0.93464936  0.53493232    -0.46130
H1043       H  0.87660142  0.00878675  0.47344758     0.07660
C1044       C  0.80036440  0.14151096  0.51511667     0.43360
C1045       C  0.82732989  0.95342379  0.55104849    -0.05650
Co1046     Co  0.82664190  0.04509126  0.52123893     0.73820
N1047       N  0.81558542  0.02848807  0.42680394    -0.45840
C1048       C  0.71246249  0.03438144  0.61340909     0.43630
N1049       N  0.82863103  0.07380090  0.58612868    -0.45830
Co1050     Co  0.76925274  0.06380479  0.46455228     0.73890
C1051       C  0.72240424  0.11434703  0.46641418    -0.06160
C1052       C  0.71325149  0.94168842  0.50171101    -0.05720
N1053       N  0.79441225  0.03493875  0.57959316    -0.25250
N1054       N  0.71037256  0.99725695  0.42511142    -0.46010
H1055       H  0.68296602  0.06683714  0.57832054     0.07640
C1056       C  0.82219741  0.11764973  0.52816900    -0.06140
Cl1057     Cl  0.77001066  0.03161524  0.51097027    -0.49140
C1058       C  0.84308922  0.01311171  0.42981511     0.43390
H1059       H  0.77828936  0.03363082  0.62673659     0.07600
N1060       N  0.78282150  0.12673118  0.49261972    -0.45850
C1061       C  0.15073906  0.93214162  0.48647303     0.43240
N1062       N  0.18553069  0.96300042  0.50707859     0.02130
C1063       C  0.21300530  0.11725860  0.48634446    -0.05740
H1064       H  0.19858360  0.04293218  0.38458869     0.07630
C1065       C  0.29360540  0.99915976  0.40888836    -0.06090
Co1066     Co  0.17447102  0.02968871  0.49872939     0.74180
N1067       N  0.19252463  0.03947146  0.43419174    -0.25270
Co1068     Co  0.23339716  0.05832821  0.45147106     0.74070
C1069       C  0.27470655  0.01236559  0.38078603     0.43350
N1070       N  0.27860619  0.96024947  0.48504885     0.01750
N1071       N  0.25859355  0.03101660  0.42450423     0.01860
N1072       N  0.17754933  0.09797048  0.51949558    -0.46120
H1073       H  0.12079143  0.97397329  0.46710803     0.07610
N1074       N  0.16816739  0.03247082  0.45113444     0.02140
N1075       N  0.27463516  0.07751132  0.46700082     0.01880
C1076       C  0.29151236  0.12048751  0.49002396     0.43490
N1077       N  0.25241444  0.95021102  0.49787527    -0.24730
C1078       C  0.17126961  0.04153259  0.57102337    -0.05650
N1079       N  0.17810561  0.93350502  0.50310570    -0.45830
N1080       N  0.27639567  0.10821282  0.46481321    -0.46060
C1081       C  0.18651202  0.02697385  0.59860835     0.43260
N1082       N  0.18810484  0.07585724  0.50066496     0.02130
N1083       N  0.26746894  0.98816983  0.55003598    -0.24750
N1084       N  0.16427961  0.98229730  0.49501099    -0.25240
N1085       N  0.28839812  0.00879120  0.54120510     0.01770
H1086       H  0.25203628  0.96888603  0.59173747     0.07660
H1087       H  0.31447281  0.08965723  0.53061415     0.07690
N1088       N  0.20910995  0.08659233  0.48128536    -0.25290
N1089       N  0.28181052  0.01304722  0.43561420    -0.24900
N1090       N  0.20237660  0.00387332  0.55786397     0.02130
C1091       C  0.15190612  0.02709395  0.40380731     0.43530
C1092       C  0.24729290  0.91999502  0.49163870    -0.06160
N1093       N  0.29092063  0.06486604  0.49061129    -0.24900
H1094       H  0.31251691  0.98195730  0.40876693     0.07680
N1095       N  0.14226251  0.02600693  0.43367415    -0.46130
H1096       H  0.22899340  0.90566444  0.50147118     0.07660
C1097       C  0.29162933  0.00533292  0.59343265     0.43360
C1098       C  0.14107818  0.96491178  0.48048068    -0.05650
Co1099     Co  0.22700310  0.97604124  0.52779362     0.73820
N1100       N  0.29276884  0.93586493  0.47045607    -0.45840
C1101       C  0.19323063  0.12444238  0.51212616     0.43630
N1102       N  0.20468766  0.00330015  0.58899647    -0.45830
Co1103     Co  0.28781915  0.01207245  0.48869172     0.73890
C1104       C  0.30167352  0.09082529  0.50803360    -0.06160
C1105       C  0.18472770  0.03569329  0.40417297    -0.05720
N1106       N  0.18276743  0.02552779  0.54677728    -0.25250
N1107       N  0.25450503  0.03186164  0.39373576    -0.46010
H1108       H  0.22686729  0.13310271  0.47281684     0.07640
C1109       C  0.26958139  0.98279561  0.58022524    -0.06140
Cl1110     Cl  0.23114871  0.01882475  0.49169207    -0.49140
C1111       C  0.27349345  0.90971328  0.47379353     0.43390
H1112       H  0.15418188  0.06052278  0.56956452     0.07600
N1113       N  0.30293907  0.02148330  0.56752510    -0.45850
C1114       C  0.89826771  0.19077523  0.48375230     0.43240
N1115       N  0.93938104  0.21378098  0.46964171     0.02130
C1116       C  0.08313896  0.21893626  0.54365035    -0.05740
H1117       H  0.98386374  0.25473279  0.60791602     0.07630
C1118       C  0.97115694  0.32733344  0.57265126    -0.06090
Co1119     Co  0.99651860  0.19691658  0.50456728     0.74180
N1120       N  0.99523815  0.23273584  0.56405750    -0.25270
Co1121     Co  0.02908958  0.26129010  0.54528684     0.74070
C1122       C  0.98799069  0.31677146  0.60396861     0.43350
N1123       N  0.94083069  0.30463271  0.48669053     0.01750
N1124       N  0.00955586  0.29879709  0.56176361     0.01860
N1125       N  0.06436236  0.17703876  0.51477070    -0.46120
H1126       H  0.92606112  0.16245169  0.52191284     0.07610
N1127       N  0.98500438  0.20637651  0.55029391     0.02140
N1128       N  0.05812336  0.28998376  0.52293621     0.01880
C1129       C  0.10265770  0.30125037  0.50193774     0.43490
N1130       N  0.93327278  0.28139736  0.46674252    -0.24730
C1131       C  0.02765856  0.17595530  0.44089013    -0.05650
N1132       N  0.90895412  0.21141202  0.46358133    -0.45830
N1133       N  0.08897057  0.28563899  0.52476880    -0.46060
C1134       C  0.02974386  0.19201305  0.41036393     0.43260
N1135       N  0.04281590  0.19916431  0.51771069     0.02130
N1136       N  0.98551858  0.28129097  0.42991199    -0.24750
N1137       N  0.94989903  0.19490121  0.49172115    -0.25240
N1138       N  0.99904413  0.30686515  0.44143352     0.01770
H1139       H  0.97481032  0.26034138  0.38485567     0.07660
H1140       H  0.07459687  0.32989531  0.46290241     0.07690
N1141       N  0.05372254  0.22375182  0.53353398    -0.25290
N1142       N  0.98785844  0.31557574  0.54720673    -0.24900
N1143       N  0.99893536  0.21767858  0.43973816     0.02130
C1144       C  0.96101745  0.20897293  0.59350579     0.43530
C1145       C  0.90221072  0.27890023  0.46222546    -0.06160
N1146       N  0.04736082  0.30887019  0.50030931    -0.24900
H1147       H  0.95008317  0.34175988  0.57027629     0.07680
N1148       N  0.96485784  0.19091795  0.56754478    -0.46130
H1149       H  0.89042360  0.26142793  0.44729702     0.07660
C1150       C  0.00300181  0.30523019  0.38960455     0.43360
C1151       C  0.92533739  0.17882775  0.50249441    -0.05650
Co1152     Co  0.96448332  0.24849550  0.45160008     0.73820
N1153       N  0.91390938  0.31593066  0.49915505    -0.45840
C1154       C  0.08973043  0.18857956  0.53129417     0.43630
N1155       N  0.01259046  0.21825311  0.41264979    -0.45830
Co1156     Co  0.99353922  0.31197612  0.49403894     0.73890
C1157       C  0.07443051  0.31674526  0.48463823    -0.06160
C1158       C  0.97946656  0.23705757  0.59012042    -0.05720
N1159       N  0.00840017  0.19423270  0.45771217    -0.25250
N1160       N  0.01147484  0.30051674  0.59242969    -0.46010
H1161       H  0.09781027  0.23473929  0.55818942     0.07640
C1162       C  0.98546407  0.27925191  0.39905634    -0.06140
Cl1163     Cl  0.99577995  0.25529980  0.49880748    -0.49140
C1164       C  0.88833146  0.30036521  0.48404510     0.43390
H1165       H  0.04021373  0.15531126  0.44940944     0.07600
N1166       N  0.01151847  0.32248956  0.41696843    -0.45850
C1167       C  0.02571439  0.95394204  0.34212494     0.43240
N1168       N  0.03309395  0.98587599  0.30467046     0.02130
C1169       C  0.97635170  0.13294686  0.27778115    -0.05740
H1170       H  0.88969546  0.03488554  0.28055618     0.07630
C1171       C  0.92394054  0.99427083  0.19902133    -0.06090
Co1172     Co  0.00701846  0.04785674  0.31201739     0.74180
N1173       N  0.93953949  0.04536188  0.28936320    -0.25270
Co1174     Co  0.95455902  0.06875509  0.25028792     0.74070
C1175       C  0.89318799  0.00660969  0.21232600     0.43350
N1176       N  0.00570207  0.97207914  0.21373916     0.01750
N1177       N  0.93253143  0.03819509  0.22195393     0.01860
N1178       N  0.01388031  0.11669846  0.31287479    -0.46120
H1179       H  0.99833436  0.99213283  0.36969736     0.07610
N1180       N  0.95959406  0.03755306  0.31258895     0.02140
N1181       N  0.97142980  0.08912900  0.21154462     0.01880
C1182       C  0.99595189  0.13274813  0.19979219     0.43490
N1183       N  0.02384812  0.96733730  0.23934912    -0.24730
C1184       C  0.07466146  0.07899229  0.31567973    -0.05650
N1185       N  0.03944413  0.95752296  0.31462901    -0.45830
N1186       N  0.97019777  0.11999733  0.21157276    -0.46060
C1187       C  0.10453939  0.07282064  0.29958043     0.43260
N1188       N  0.99835499  0.09285928  0.30001237     0.02130
N1189       N  0.06624716  0.01298003  0.22425167    -0.24750
N1190       N  0.01684712  0.00250191  0.32425021    -0.25240
N1191       N  0.05330968  0.02690258  0.19974856     0.01770
H1192       H  0.11140522  0.99712823  0.23997157     0.07660
H1193       H  0.03748573  0.10162867  0.18109289     0.07690
N1194       N  0.97711783  0.10146308  0.27854594    -0.25290
N1195       N  0.94730597  0.01664609  0.20553362    -0.24900
N1196       N  0.06884854  0.03929958  0.28460037     0.02130
C1197       C  0.91641047  0.01455697  0.32329744     0.43530
C1198       C  0.02506191  0.93732343  0.24681700    -0.06160
N1199       N  0.99581920  0.07659111  0.19743495    -0.24900
H1200       H  0.92774675  0.97176434  0.18751902     0.07680
N1201       N  0.94668683  0.01911834  0.33328956    -0.46130
H1202       H  0.03887952  0.92754587  0.26624230     0.07660
C1203       C  0.10541942  0.02431694  0.19500091     0.43360
C1204       C  0.01090692  0.98451672  0.34923284    -0.05650
Co1205     Co  0.04747242  0.00144740  0.26326026     0.73820
N1206       N  0.99355573  0.94410614  0.20328572    -0.45840
C1207       C  0.00235731  0.14267234  0.29900644     0.43630
N1208       N  0.09741836  0.04947502  0.27888318    -0.45830
Co1209     Co  0.00018201  0.02313693  0.20096359     0.73890
C1210       C  0.01378768  0.10284198  0.18992755    -0.06160
C1211       C  0.91141293  0.03230965  0.29458862    -0.05720
N1212       N  0.05449559  0.05645902  0.30552148    -0.25250
N1213       N  0.90202088  0.03394095  0.22512282    -0.46010
H1214       H  0.96000882  0.14702541  0.26388316     0.07640
C1215       C  0.09672462  0.00833962  0.22213644    -0.06140
Cl1216     Cl  0.00215160  0.03489072  0.25621223    -0.49140
C1217       C  0.00578414  0.92116004  0.22349264     0.43390
H1218       H  0.06971166  0.09698083  0.33310302     0.07600
N1219       N  0.07715288  0.03599560  0.18113852    -0.45850
C1220       C  0.09606582  0.07199649  0.66822290     0.43240
N1221       N  0.04777505  0.06855130  0.68112142     0.02130
C1222       C  0.98091337  0.10454775  0.80389856    -0.05740
H1223       H  0.09038540  0.99171865  0.80072608     0.07630
C1224       C  0.00491479  0.93890027  0.74242519    -0.06090
Co1225     Co  0.04451805  0.08741038  0.74816491     0.74180
N1226       N  0.06297660  0.03313485  0.78604371    -0.25270
Co1227     Co  0.00983936  0.02861844  0.79058974     0.74070
C1228       C  0.02191762  0.92613909  0.76904187     0.43350
N1229       N  0.99587718  0.99262159  0.68463181     0.01750
N1230       N  0.01527542  0.97712050  0.77672063     0.01860
N1231       N  0.02588619  0.12825767  0.79399275    -0.46120
H1232       H  0.11250226  0.09179643  0.71616730     0.07610
N1233       N  0.07309722  0.05761840  0.77034195     0.02140
N1234       N  0.95728158  0.02235205  0.78851646     0.01880
C1235       C  0.90457164  0.01736171  0.78692196     0.43490
N1236       N  0.00396408  0.01647088  0.66723931    -0.24730
C1237       C  0.00810255  0.14669609  0.72755112    -0.05650
N1238       N  0.06673074  0.06267325  0.65760714    -0.45830
N1239       N  0.93034455  0.03420012  0.80044909    -0.46060
C1240       C  0.98173081  0.15340136  0.70563703     0.43260
N1241       N  0.02798114  0.09766995  0.79042925     0.02130
N1242       N  0.95138515  0.05403200  0.68948243    -0.24750
N1243       N  0.06375273  0.07921236  0.70624953    -0.25240
N1244       N  0.94301732  0.03061984  0.70724804     0.01770
H1245       H  0.92601205  0.09597093  0.67429368     0.07660
H1246       H  0.90822744  0.98155722  0.74690335     0.07690
N1247       N  0.00333857  0.08127499  0.79847465    -0.25290
N1248       N  0.00227764  0.96935310  0.74889960    -0.24900
N1249       N  0.99369638  0.10486368  0.70240876     0.02130
C1250       C  0.11761166  0.03281387  0.77659357     0.43530
C1251       C  0.01739672  0.00573818  0.64130787    -0.06160
N1252       N  0.94948896  0.00157648  0.76668176    -0.24900
H1253       H  0.99353606  0.92662747  0.72253050     0.07680
N1254       N  0.10337243  0.05821044  0.76500611    -0.46130
H1255       H  0.02596999  0.02054516  0.62293518     0.07660
C1256       C  0.90215547  0.06040530  0.70615585     0.43360
C1257       C  0.09391357  0.08346911  0.69987404    -0.05650
Co1258     Co  0.99894673  0.06123173  0.68341361     0.73820
N1259       N  0.00422008  0.96538475  0.67258215    -0.45840
C1260       C  0.99673346  0.13708939  0.80066809     0.43630
N1261       N  0.97478662  0.12636531  0.69032563    -0.45830
Co1262     Co  0.97311267  0.99823409  0.72610567     0.73890
C1263       C  0.91909264  0.99428878  0.76662012    -0.06160
C1264       C  0.09003392  0.01506517  0.79067409    -0.05720
N1265       N  0.01263233  0.11588758  0.72517457    -0.25250
N1266       N  0.02802988  0.95098387  0.79008542    -0.46010
H1267       H  0.95611737  0.09989755  0.80760747     0.07640
C1268       C  0.92642080  0.07355234  0.68617715    -0.06140
Cl1269     Cl  0.00724008  0.04315569  0.73722956    -0.49140
C1270       C  0.01816840  0.97158662  0.64534444     0.43390
H1271       H  0.02417219  0.16243090  0.73999638     0.07600
N1272       N  0.91471741  0.03440402  0.71821744    -0.45850
C1273       C  0.00747144  0.29020886  0.23452290     0.01350
C1274       C  0.00841841  0.26493320  0.25583232     0.01350
C1275       C  0.73930233  0.97773814  0.24221265     0.01350
C1276       C  0.76453188  0.98410180  0.26424936     0.01350
C1277       C  0.00186279  0.76462046  0.23539513     0.01350
C1278       C  0.00132334  0.78673657  0.26029071     0.01350
C1279       C  0.26342092  0.02181944  0.22506945     0.01350
C1280       C  0.23738202  0.02175427  0.24485334     0.01350
C1281       C  0.25870129  0.27363937  0.49626487     0.01350
C1282       C  0.23505329  0.25021014  0.49644850     0.01350
C1283       C  0.73148364  0.28377780  0.50690268     0.01350
C1284       C  0.75365665  0.25964341  0.50295926     0.01350
C1285       C  0.27539649  0.75251403  0.46745608     0.01350
C1286       C  0.24930349  0.77318646  0.46697512     0.01350
C1287       C  0.27264207  0.02418416  0.74775409     0.01350
C1288       C  0.24795275  0.02324874  0.72461621     0.01350
C1289       C  0.26258502  0.25709203  0.96730137     0.01350
C1290       C  0.23950829  0.28078663  0.96742811     0.01350
C1291       C  0.25435250  0.75499001  0.00633505     0.01350
C1292       C  0.27511641  0.78081261  0.00601381     0.01350
C1293       C  0.52788400  0.74685816  0.26048770     0.01350
C1294       C  0.51935716  0.76904411  0.23713118     0.01350
C1295       C  0.49451319  0.26956157  0.26345865     0.01350
C1296       C  0.49374326  0.24648879  0.23961290     0.01350
C1297       C  0.50158678  0.29800194  0.73773956     0.01350
C1298       C  0.50555999  0.27641385  0.76246330     0.01350
C1299       C  0.99461620  0.28989172  0.75679674     0.01350
C1300       C  0.98630273  0.26459210  0.73612505     0.01350
C1301       C  0.74575785  0.25920826  0.02315409     0.01350
C1302       C  0.77036931  0.28183139  0.02174078     0.01350
C1303       C  0.26881349  0.51974254  0.25246439     0.01350
C1304       C  0.24790111  0.52645513  0.22657377     0.01350
C1305       C  0.74479209  0.50258374  0.27109244     0.01350
C1306       C  0.76622202  0.50363137  0.24654598     0.01350
C1307       C  0.27141052  0.49279469  0.73029643     0.01350
C1308       C  0.24432732  0.49276833  0.74870116     0.01350
C1309       C  0.02810262  0.78899338  0.73904233     0.01350
C1310       C  0.03203864  0.76502657  0.76180306     0.01350
C1311       C  0.74909737  0.04661787  0.77284014     0.01350
C1312       C  0.76851295  0.04490282  0.74656304     0.01350
C1313       C  0.75186873  0.78308579  0.99505128     0.01350
C1314       C  0.77737078  0.76210761  0.99953681     0.01350
C1315       C  0.75140265  0.56515347  0.75005083     0.01350
C1316       C  0.77448848  0.57132958  0.77430350     0.01350
C1317       C  0.75787982  0.75923152  0.53222661     0.01350
C1318       C  0.77844458  0.78511298  0.53124742     0.01350
C1319       C  0.53747525  0.76829227  0.73889834     0.01350
C1320       C  0.53690699  0.79422292  0.75976063     0.01350
C1321       C  0.80534505  0.04213955  0.75236646    -0.04550
C1322       C  0.82058377  0.01332092  0.74558310    -0.01670
C1323       C  0.84905893  0.00428386  0.76231003     0.03320
C1324       C  0.86923667  0.02661498  0.77895299    -0.04550
C1325       C  0.85567058  0.05691838  0.78345846    -0.01660
C1326       C  0.82390995  0.06421463  0.77134066     0.03320
C1327       C  0.80663501  0.99143584  0.72250057     0.37970
C1328       C  0.87299251  0.07955692  0.80318629     0.37960
C1329       C  0.81024716  0.09456652  0.77878944     0.36380
C1330       C  0.85480728  0.97065544  0.76562652     0.36380
N1331       N  0.79947471  0.11887767  0.78489509    -0.38440
N1332       N  0.85901892  0.94381681  0.76836226    -0.38440
N1333       N  0.88655499  0.09730243  0.81971161    -0.37880
N1334       N  0.79745650  0.97351451  0.70344171    -0.37890
C1335       C  0.98894992  0.17172020  0.79028677    -0.04550
C1336       C  0.96070020  0.18169854  0.77435643    -0.01670
C1337       C  0.95888290  0.21138905  0.75738560     0.03320
C1338       C  0.98666937  0.22991220  0.75073611    -0.04550
C1339       C  0.01500133  0.21841334  0.76626200    -0.01660
C1340       C  0.01479900  0.19348898  0.78891207     0.03320
C1341       C  0.93310043  0.16173928  0.77618404     0.37970
C1342       C  0.04569576  0.23110853  0.75910609     0.37960
C1343       C  0.04325789  0.18831615  0.80868518     0.36380
C1344       C  0.92748987  0.22277469  0.74958263     0.36380
N1345       N  0.06598858  0.18362102  0.82410754    -0.38440
N1346       N  0.90097701  0.22918545  0.74576106    -0.38440
N1347       N  0.07150771  0.23918519  0.75539323    -0.37880
N1348       N  0.91097460  0.14578316  0.77775313    -0.37890
C1349       C  0.15209762  0.02780951  0.76675853    -0.04550
C1350       C  0.16627907  0.99817700  0.76166300    -0.01670
C1351       C  0.19694800  0.99573033  0.74784768     0.03320
C1352       C  0.21286712  0.02278791  0.73530781    -0.04550
C1353       C  0.19676906  0.05178768  0.73834475    -0.01660
C1354       C  0.16964811  0.05470609  0.75701255     0.03320
C1355       C  0.14945526  0.97006594  0.77079389     0.37970
C1356       C  0.20747324  0.07957506  0.72227193     0.37960
C1357       C  0.16094177  0.08627098  0.76733551     0.36380
C1358       C  0.21044190  0.96457558  0.74592280     0.36380
N1359       N  0.15423183  0.11144002  0.77557266    -0.38440
N1360       N  0.21890656  0.93863203  0.74475752    -0.38440
N1361       N  0.21382393  0.10289775  0.71004139    -0.37880
N1362       N  0.13614955  0.94749460  0.77800463    -0.37890
C1363       C  0.02936062  0.89095885  0.76886618    -0.04550
C1364       C  0.00824406  0.86910007  0.78211823    -0.01670
C1365       C  0.00653860  0.83678197  0.77157813     0.03320
C1366       C  0.02655758  0.82482797  0.74773867    -0.04550
C1367       C  0.04628388  0.84751877  0.73322077    -0.01660
C1368       C  0.04837719  0.87942281  0.74438400     0.03320
C1369       C  0.98690879  0.88037851  0.80573036     0.37970
C1370       C  0.06436198  0.83911231  0.70600301     0.37960
C1371       C  0.06939315  0.90134344  0.72922258     0.36380
C1372       C  0.98282752  0.81627674  0.78445020     0.36380
N1373       N  0.08604620  0.91880258  0.71705800    -0.38440
N1374       N  0.96388943  0.80013156  0.79506652    -0.38440
N1375       N  0.07874392  0.83402930  0.68378020    -0.37880
N1376       N  0.96988963  0.88937135  0.82462542    -0.37890
C1377       C  0.14105574  0.03145263  0.19481304    -0.04550
C1378       C  0.15361539  0.05525582  0.21571628    -0.01670
C1379       C  0.18355881  0.05172997  0.23294993     0.03320
C1380       C  0.20281760  0.02422800  0.22967171    -0.04550
C1381       C  0.19009271  0.00049536  0.20856670    -0.01660
C1382       C  0.16103749  0.00489536  0.19037684     0.03320
C1383       C  0.13401368  0.08250738  0.22179307     0.37970
C1384       C  0.20496178  0.96975213  0.20766072     0.37960
C1385       C  0.14979079  0.98004625  0.16890912     0.36380
C1386       C  0.19254907  0.07545589  0.25643333     0.36380
N1387       N  0.14089182  0.96020182  0.15177461    -0.38440
N1388       N  0.19813055  0.09476145  0.27537398    -0.38440
N1389       N  0.21586938  0.94473037  0.20666090    -0.37880
N1390       N  0.11837228  0.10422179  0.22694247    -0.37890
C1391       C  0.00343954  0.88527189  0.22552851    -0.04550
C1392       C  0.97449965  0.86842561  0.22470219    -0.01670
C1393       C  0.97314292  0.83666967  0.23618833     0.03320
C1394       C  0.00001724  0.82227135  0.25212236    -0.04550
C1395       C  0.02834234  0.84024597  0.25404604    -0.01660
C1396       C  0.03077261  0.86908686  0.23768323     0.03320
C1397       C  0.94620869  0.88364585  0.21188748     0.37970
C1398       C  0.05660739  0.82833215  0.27029039     0.37960
C1399       C  0.06225521  0.88174161  0.23244898     0.36380
C1400       C  0.94377980  0.81921614  0.23154838     0.36380
N1401       N  0.08732765  0.89169150  0.22827850    -0.38440
N1402       N  0.91990662  0.80590649  0.22778018    -0.38440
N1403       N  0.08053581  0.82043208  0.28190902    -0.37880
N1404       N  0.92361077  0.89577628  0.20150586    -0.37890
C1405       C  0.86006315  0.99528797  0.22105076    -0.04550
C1406       C  0.85561992  0.97417681  0.24623464    -0.01670
C1407       C  0.82597751  0.97246735  0.26223774     0.03320
C1408       C  0.79897185  0.99103230  0.25268474    -0.04550
C1409       C  0.80448822  0.01344224  0.22837498    -0.01660
C1410       C  0.83394719  0.01494154  0.21272888     0.03320
C1411       C  0.88203063  0.95412418  0.25546900     0.37970
C1412       C  0.77968455  0.03475133  0.21759566     0.37960
C1413       C  0.83753317  0.03734896  0.18734389     0.36380
C1414       C  0.82326506  0.95054368  0.28787856     0.36380
N1415       N  0.84038515  0.05512065  0.16707962    -0.38440
N1416       N  0.82175620  0.93288956  0.30842081    -0.38440
N1417       N  0.76123367  0.05207158  0.20673858    -0.37880
N1418       N  0.90356826  0.93820756  0.26182037    -0.37890
C1419       C  0.00832691  0.22990491  0.24295649    -0.04550
C1420       C  0.97948243  0.21284717  0.24046596    -0.01670
C1421       C  0.97559416  0.18618365  0.21991216     0.03320
C1422       C  0.00200737  0.16810804  0.20962793    -0.04550
C1423       C  0.03189078  0.18344798  0.21391546    -0.01660
C1424       C  0.03463184  0.21473366  0.22831175     0.03320
C1425       C  0.95301128  0.22170560  0.25931192     0.37970
C1426       C  0.05958684  0.16796439  0.20209052     0.37960
C1427       C  0.06502763  0.23051100  0.22851006     0.36380
C1428       C  0.94346642  0.17803077  0.20897456     0.36380
N1429       N  0.08979900  0.24231385  0.22827132    -0.38440
N1430       N  0.91783647  0.17176672  0.20025977    -0.38440
N1431       N  0.08181527  0.15588235  0.19232713    -0.37880
N1432       N  0.93101298  0.22650290  0.27411602    -0.37890
C1433       C  0.98394462  0.30892395  0.63958341    -0.04550
C1434       C  0.01200177  0.30037371  0.65752895    -0.01670
C1435       C  0.01148256  0.27906049  0.68336496     0.03320
C1436       C  0.98341994  0.27248411  0.69954694    -0.04550
C1437       C  0.95485548  0.28335463  0.68312775    -0.01660
C1438       C  0.95527601  0.30021771  0.65339363     0.03320
C1439       C  0.04256958  0.31315049  0.64908142     0.37970
C1440       C  0.92406697  0.27730938  0.69535464     0.37960
C1441       C  0.92600851  0.31127120  0.63872364     0.36380
C1442       C  0.04019008  0.26160227  0.69018984     0.36380
N1443       N  0.90222076  0.32097519  0.62849527    -0.38440
N1444       N  0.06410580  0.24830779  0.69205469    -0.38440
N1445       N  0.89793414  0.27465135  0.70227479    -0.37880
N1446       N  0.06696506  0.32321689  0.64250004    -0.37890
C1447       C  0.85278681  0.29574591  0.49077488    -0.04550
C1448       C  0.83990185  0.29445078  0.52105063    -0.01670
C1449       C  0.80802988  0.28301522  0.52533109     0.03320
C1450       C  0.78952338  0.26835214  0.50002621    -0.04550
C1451       C  0.80402452  0.26793920  0.47026281    -0.01660
C1452       C  0.83240626  0.28519312  0.46532281     0.03320
C1453       C  0.85921007  0.30563804  0.54760200     0.37970
C1454       C  0.78978203  0.25181750  0.44306054     0.37960
C1455       C  0.83973948  0.29375779  0.43323209     0.36380
C1456       C  0.79443639  0.28694758  0.55592464     0.36380
N1457       N  0.84543059  0.30077179  0.40772519    -0.38440
N1458       N  0.78400052  0.29088934  0.58051871    -0.38440
N1459       N  0.78127632  0.24005910  0.41944448    -0.37880
N1460       N  0.87509702  0.31493437  0.56848610    -0.37890
C1461       C  0.13804420  0.29393516  0.49768391    -0.04550
C1462       C  0.15850466  0.29273798  0.52512349    -0.01670
C1463       C  0.18845293  0.27688671  0.52537177     0.03320
C1464       C  0.19951027  0.26080723  0.49814950    -0.04550
C1465       C  0.17848154  0.26164742  0.47079872    -0.01660
C1466       C  0.14958548  0.27976156  0.47015475     0.03320
C1467       C  0.14893839  0.30899240  0.55358470     0.37970
C1468       C  0.18608706  0.24444760  0.44249844     0.37960
C1469       C  0.13380996  0.28714670  0.44036628     0.36380
C1470       C  0.20717923  0.27697796  0.55468910     0.36380
N1471       N  0.12263134  0.29486447  0.41634729    -0.38440
N1472       N  0.22054225  0.27775189  0.57906875    -0.38440
N1473       N  0.19045825  0.23143486  0.41892408    -0.37880
N1474       N  0.14134401  0.32199281  0.57623362    -0.37890
C1475       C  0.00669747  0.27304736  0.29202337    -0.04550
C1476       C  0.03309805  0.26876672  0.31361563    -0.01670
C1477       C  0.03401846  0.28260589  0.34473115     0.03320
C1478       C  0.01067034  0.30429603  0.35478070    -0.04550
C1479       C  0.98467987  0.30898511  0.33310022    -0.01660
C1480       C  0.98135862  0.29159144  0.30396962     0.03320
C1481       C  0.06066624  0.25148997  0.30408371     0.37970
C1482       C  0.95947149  0.33010040  0.34226078     0.37960
C1483       C  0.95083325  0.29242206  0.28722604     0.36380
C1484       C  0.05699516  0.27113081  0.36802316     0.36380
N1485       N  0.92564162  0.29358508  0.27541753    -0.38440
N1486       N  0.07428809  0.26089258  0.38706352    -0.38440
N1487       N  0.93942715  0.34702012  0.34948648    -0.37880
N1488       N  0.08414966  0.23917845  0.29800716    -0.37890
C1489       C  0.02447049  0.17726472  0.37968094    -0.04550
C1490       C  0.04736860  0.18177673  0.35688518    -0.01670
C1491       C  0.03853180  0.17802216  0.32481132     0.03320
C1492       C  0.00643345  0.17185926  0.31609514    -0.04550
C1493       C  0.98299516  0.17547169  0.33832200    -0.01660
C1494       C  0.99215285  0.17248340  0.37009101     0.03320
C1495       C  0.07971179  0.18991125  0.36660669     0.37970
C1496       C  0.94957956  0.17440421  0.32860718     0.37960
C1497       C  0.96803704  0.16680670  0.39306048     0.36380
C1498       C  0.06274792  0.17304631  0.30180540     0.36380
N1499       N  0.94867761  0.16221157  0.41112241    -0.38440
N1500       N  0.08190974  0.16842452  0.28347010    -0.38440
N1501       N  0.92287159  0.17323737  0.32123261    -0.37880
N1502       N  0.10526435  0.19697294  0.37485190    -0.37890
C1503       C  0.96536948  0.19609687  0.62450352    -0.04550
C1504       C  0.94119182  0.19918462  0.64594557    -0.01670
C1505       C  0.94696786  0.18866877  0.67658233     0.03320
C1506       C  0.97833379  0.18130548  0.68700652    -0.04550
C1507       C  0.00379512  0.18617094  0.66707359    -0.01660
C1508       C  0.99677218  0.18875148  0.63496832     0.03320
C1509       C  0.91001981  0.21096891  0.63629175     0.37970
C1510       C  0.03659215  0.18097878  0.67776154     0.37960
C1511       C  0.02185796  0.18361167  0.61282993     0.36380
C1512       C  0.91996149  0.17867132  0.69389499     0.36380
N1513       N  0.04192271  0.17908558  0.59547163    -0.38440
N1514       N  0.89759354  0.17057562  0.70646036    -0.38440
N1515       N  0.06270999  0.17637519  0.68585024    -0.37880
N1516       N  0.88500781  0.22056061  0.62955330    -0.37890
C1517       C  0.28760745  0.01281749  0.62879541    -0.04550
C1518       C  0.27532769  0.98804117  0.64717878    -0.01670
C1519       C  0.25454906  0.99428461  0.67184482     0.03320
C1520       C  0.25632188  0.02307090  0.68886995    -0.04550
C1521       C  0.27353562  0.04781904  0.67360842    -0.01660
C1522       C  0.28686904  0.04315024  0.64286523     0.03320
C1523       C  0.28403993  0.95541912  0.64085790     0.37970
C1524       C  0.27644170  0.07881485  0.68785511     0.37960
C1525       C  0.30119827  0.06906599  0.62659700     0.36380
C1526       C  0.23079385  0.97077103  0.67766319     0.36380
N1527       N  0.31293920  0.08974181  0.61372281    -0.38440
N1528       N  0.21171809  0.95123502  0.67913654    -0.38440
N1529       N  0.27942454  0.10439199  0.69737684    -0.37880
N1530       N  0.29100487  0.92947595  0.63590019    -0.37890
C1531       C  0.24573900  0.21467208  0.49463920    -0.04550
C1532       C  0.26230926  0.20340706  0.46809277    -0.01670
C1533       C  0.28163758  0.17572205  0.46955050     0.03320
C1534       C  0.28251891  0.15530043  0.49609478    -0.04550
C1535       C  0.26515615  0.16548030  0.52226831    -0.01660
C1536       C  0.24729608  0.19461438  0.52169851     0.03320
C1537       C  0.26029092  0.22049199  0.43866950     0.37970
C1538       C  0.26572606  0.14570613  0.54986663     0.37960
C1539       C  0.23156644  0.20419276  0.54985704     0.36380
C1540       C  0.30112322  0.16807252  0.44297597     0.36380
N1541       N  0.21966904  0.21088701  0.57314163    -0.38440
N1542       N  0.31676733  0.16210024  0.42187050    -0.38440
N1543       N  0.26666817  0.12963034  0.57177990    -0.37880
N1544       N  0.25954551  0.23318874  0.41459904    -0.37890
C1545       C  0.27909112  0.87437539  0.47112283    -0.04550
C1546       C  0.27343872  0.85663647  0.49843544    -0.01670
C1547       C  0.25819929  0.82674856  0.49633083     0.03320
C1548       C  0.25621705  0.80927049  0.46740944    -0.04550
C1549       C  0.26725062  0.82538334  0.44031736    -0.01660
C1550       C  0.27637245  0.85808335  0.44190051     0.03320
C1551       C  0.28128954  0.87052679  0.52933888     0.37970
C1552       C  0.26849534  0.80909669  0.41026547     0.37960
C1553       C  0.28284163  0.87511922  0.41341234     0.36380
C1554       C  0.24386151  0.81586475  0.52464515     0.36380
N1555       N  0.28817930  0.88873878  0.39067534    -0.38440
N1556       N  0.23297173  0.81044254  0.54867356    -0.38440
N1557       N  0.26959497  0.79710587  0.38566380    -0.37880
N1558       N  0.28752047  0.88156641  0.55391707    -0.37890
C1559       C  0.24417495  0.01976952  0.28130289    -0.04550
C1560       C  0.23811019  0.99186417  0.29882758    -0.01670
C1561       C  0.25150364  0.98739529  0.33016357     0.03320
C1562       C  0.27216749  0.00994427  0.34495335    -0.04550
C1563       C  0.27783022  0.03783034  0.32779351    -0.01660
C1564       C  0.26300159  0.04331064  0.29746491     0.03320
C1565       C  0.21837359  0.96696682  0.28510267     0.37970
C1566       C  0.29830970  0.06196001  0.34225341     0.37960
C1567       C  0.26663563  0.07409857  0.28354302     0.36380
C1568       C  0.24287993  0.95984940  0.34798186     0.36380
N1569       N  0.26965326  0.09919992  0.27356121    -0.38440
N1570       N  0.23587921  0.93795671  0.36228687    -0.38440
N1571       N  0.31469826  0.08115647  0.35375421    -0.37880
N1572       N  0.20265650  0.94624877  0.27565547    -0.37890
C1573       C  0.17986340  0.15481062  0.51834551    -0.04550
C1574       C  0.16981416  0.15916970  0.54925240    -0.01670
C1575       C  0.13981200  0.17099287  0.55369922     0.03320
C1576       C  0.12139423  0.17945804  0.52702273    -0.04550
C1577       C  0.13438348  0.18265634  0.49722679    -0.01660
C1578       C  0.16429102  0.17018102  0.49267518     0.03320
C1579       C  0.18872045  0.14854712  0.57614208     0.37970
C1580       C  0.11649087  0.19729614  0.47126281     0.37960
C1581       C  0.17554825  0.16799849  0.46077620     0.36380
C1582       C  0.12710659  0.17233264  0.58514558     0.36380
N1583       N  0.18408184  0.16545208  0.43522653    -0.38440
N1584       N  0.11689346  0.17349816  0.61009675    -0.38440
N1585       N  0.10228122  0.20910025  0.45068022    -0.37880
N1586       N  0.20346232  0.14210943  0.59863841    -0.37890
C1587       C  0.13380125  0.06890260  0.31908050    -0.04550
C1588       C  0.13472728  0.08718644  0.34665123    -0.01670
C1589       C  0.13104040  0.07207333  0.37558674     0.03320
C1590       C  0.13417687  0.03868839  0.37694286    -0.04550
C1591       C  0.14037173  0.02130539  0.34943688    -0.01660
C1592       C  0.14424208  0.03733276  0.32140269     0.03320
C1593       C  0.13571839  0.12110828  0.34398919     0.37970
C1594       C  0.14804932  0.98775539  0.35075275     0.37960
C1595       C  0.15274200  0.01905894  0.29415132     0.36380
C1596       C  0.12786270  0.09079645  0.40418401     0.36380
N1597       N  0.15851966  0.00169586  0.27406259    -0.38440
N1598       N  0.12539005  0.10572206  0.42699832    -0.38440
N1599       N  0.15507789  0.96136676  0.35061006    -0.37880
N1600       N  0.13742921  0.14813488  0.34101600    -0.37890
C1601       C  0.12544344  0.05782987  0.65856883    -0.04550
C1602       C  0.15204781  0.07711332  0.65379102    -0.01670
C1603       C  0.17895788  0.06335235  0.64133378     0.03320
C1604       C  0.17719749  0.03209916  0.63069800    -0.04550
C1605       C  0.15429137  0.01165036  0.64230270    -0.01660
C1606       C  0.12857692  0.02469863  0.65767515     0.03320
C1607       C  0.15133188  0.11073054  0.66046222     0.37970
C1608       C  0.15521466  0.97818656  0.63509344     0.37960
C1609       C  0.10572115  0.00446514  0.67237236     0.36380
C1610       C  0.20746116  0.08130527  0.63645886     0.36380
N1611       N  0.08768252  0.98840482  0.68447077    -0.38440
N1612       N  0.23083394  0.09490249  0.63293265    -0.38440
N1613       N  0.15599012  0.95144009  0.62937861    -0.37880
N1614       N  0.15083170  0.13750931  0.66606581    -0.37890
C1615       C  0.70857443  0.16240273  0.49845189    -0.04550
C1616       C  0.70584294  0.18398494  0.47303924    -0.01670
C1617       C  0.72155414  0.21406157  0.47382043     0.03320
C1618       C  0.74072727  0.22463429  0.50049681    -0.04550
C1619       C  0.74102590  0.20392195  0.52702589    -0.01660
C1620       C  0.72454359  0.17395752  0.52610424     0.03320
C1621       C  0.68652198  0.17491505  0.44527734     0.37970
C1622       C  0.75774275  0.21339399  0.55594705     0.37960
C1623       C  0.72063269  0.15630676  0.55446950     0.36380
C1624       C  0.71809018  0.23338064  0.44596039     0.36380
N1625       N  0.71502624  0.14238660  0.57685366    -0.38440
N1626       N  0.71448889  0.24749797  0.42285586    -0.38440
N1627       N  0.77050984  0.22052257  0.57962350    -0.37880
N1628       N  0.67112386  0.16773110  0.42314061    -0.37890
C1629       C  0.72827193  0.99733901  0.36249831    -0.04550
C1630       C  0.73427834  0.96668885  0.35029789    -0.01670
C1631       C  0.74623684  0.96194537  0.31896433     0.03320
C1632       C  0.75620728  0.98775823  0.29999265    -0.04550
C1633       C  0.75213164  0.01809815  0.31338364    -0.01660
C1634       C  0.73494034  0.02267352  0.34153621     0.03320
C1635       C  0.72856710  0.93990367  0.37007751     0.37970
C1636       C  0.76655216  0.04505439  0.29878482     0.37960
C1637       C  0.72414018  0.05428724  0.34904889     0.36380
C1638       C  0.74996788  0.93009348  0.30715469     0.36380
N1639       N  0.71541505  0.07948013  0.35491898    -0.38440
N1640       N  0.75326067  0.90445345  0.29820010    -0.38440
N1641       N  0.77849780  0.06670699  0.28773561    -0.37880
N1642       N  0.72398415  0.91830843  0.38574064    -0.37890
C1643       C  0.71837957  0.04273051  0.64915070    -0.04550
C1644       C  0.73738214  0.06875113  0.66030364    -0.01670
C1645       C  0.75330035  0.06919074  0.69120372     0.03320
C1646       C  0.75261546  0.04309250  0.71205580    -0.04550
C1647       C  0.73320295  0.01720253  0.70107756    -0.01660
C1648       C  0.71584091  0.01761146  0.67112831     0.03320
C1649       C  0.74338915  0.09428845  0.63923121     0.37970
C1650       C  0.73203829  0.98872251  0.71958182     0.37960
C1651       C  0.69598908  0.99072112  0.66206915     0.36380
C1652       C  0.76932494  0.09757827  0.70237734     0.36380
N1653       N  0.68016661  0.96927118  0.65487956    -0.38440
N1654       N  0.78101501  0.12062800  0.71203765    -0.38440
N1655       N  0.73120467  0.96521837  0.73320671    -0.37880
N1656       N  0.75013653  0.11489571  0.62317889    -0.37890
C1657       C  0.76484812  0.81888929  0.52681019    -0.04550
C1658       C  0.76394646  0.83973610  0.55306155    -0.01670
C1659       C  0.74837020  0.86939437  0.55087314     0.03320
C1660       C  0.73680138  0.88153420  0.52139068    -0.04550
C1661       C  0.73663461  0.86077184  0.49520895    -0.01660
C1662       C  0.75014844  0.82979307  0.49776556     0.03320
C1663       C  0.78064568  0.83198258  0.58246754     0.37970
C1664       C  0.72277107  0.87141129  0.46543243     0.37960
C1665       C  0.75097124  0.81080753  0.46924692     0.36380
C1666       C  0.74449775  0.88780065  0.57961550     0.36380
N1667       N  0.75166405  0.79731853  0.44538593    -0.38440
N1668       N  0.74138250  0.90241040  0.60252677    -0.38440
N1669       N  0.71122041  0.87959829  0.44170994    -0.37880
N1670       N  0.79400120  0.82752155  0.60636854    -0.37890
C1671       C  0.80872341  0.17463016  0.51148659    -0.04550
C1672       C  0.83006590  0.18743466  0.53460488    -0.01670
C1673       C  0.85906743  0.19850410  0.52469521     0.03320
C1674       C  0.86604033  0.19389744  0.49298321    -0.04550
C1675       C  0.84137355  0.19198559  0.46993974    -0.01660
C1676       C  0.81117794  0.18449691  0.47975940     0.03320
C1677       C  0.82649663  0.18140148  0.56775034     0.37970
C1678       C  0.84752989  0.19452358  0.43650630     0.37960
C1679       C  0.78653807  0.17836750  0.45563394     0.36380
C1680       C  0.88115748  0.21486928  0.54610673     0.36380
N1681       N  0.76839822  0.17354015  0.43494497    -0.38440
N1682       N  0.89857590  0.22930010  0.56233073    -0.38440
N1683       N  0.85241636  0.19668562  0.40991421    -0.37880
N1684       N  0.82433947  0.17642247  0.59434238    -0.37890
C1685       C  0.89293584  0.01387406  0.34675122    -0.04550
C1686       C  0.88159213  0.98483162  0.35747131    -0.01670
C1687       C  0.86555079  0.98416523  0.38566098     0.03320
C1688       C  0.86235976  0.01233772  0.40291740    -0.04550
C1689       C  0.87281965  0.04155030  0.39160829    -0.01660
C1690       C  0.88749534  0.04243082  0.36301569     0.03320
C1691       C  0.88787170  0.95563967  0.34075079     0.37970
C1692       C  0.86822775  0.07081518  0.40922993     0.37960
C1693       C  0.89855084  0.07259361  0.35135386     0.36380
C1694       C  0.85255622  0.95480153  0.39699130     0.36380
N1695       N  0.90732168  0.09658828  0.34215982    -0.38440
N1696       N  0.84211830  0.93139400  0.40592978    -0.38440
N1697       N  0.86446823  0.09409352  0.42312534    -0.37880
N1698       N  0.89307507  0.93180353  0.32845925    -0.37890
C1699       C  0.83345918  0.06789598  0.64188956    -0.04550
C1700       C  0.84665515  0.03798710  0.64868495    -0.01670
C1701       C  0.86039652  0.03275957  0.67805373     0.03320
C1702       C  0.86906401  0.05935585  0.69659083    -0.04550
C1703       C  0.85381098  0.08823006  0.69181498    -0.01660
C1704       C  0.83612000  0.09292541  0.66372754     0.03320
C1705       C  0.84887737  0.01311968  0.62495129     0.37970
C1706       C  0.85577932  0.11213738  0.71630410     0.37960
C1707       C  0.82240324  0.12346709  0.65683717     0.36380
C1708       C  0.87050296  0.00079608  0.68589856     0.36380
N1709       N  0.81126303  0.14802477  0.65244085    -0.38440
N1710       N  0.87828526  0.97513356  0.69112412    -0.38440
N1711       N  0.85590026  0.13082227  0.73639345    -0.37880
N1712       N  0.85163361  0.99278425  0.60689302    -0.37890
C1713       C  0.15204552  0.72684609  0.46759886    -0.04550
C1714       C  0.17627049  0.72162997  0.49112439    -0.01670
C1715       C  0.20459515  0.74029541  0.49312415     0.03320
C1716       C  0.21438595  0.75935323  0.46758212    -0.04550
C1717       C  0.19118456  0.76224066  0.44210085    -0.01660
C1718       C  0.16046932  0.74689921  0.44259595     0.03320
C1719       C  0.16891798  0.70080453  0.51695189     0.37970
C1720       C  0.19700336  0.78320784  0.41630582     0.37960
C1721       C  0.13663782  0.75322607  0.41800249     0.36380
C1722       C  0.22040967  0.74326381  0.52394130     0.36380
N1723       N  0.11770580  0.75874129  0.39834584    -0.38440
N1724       N  0.23127101  0.74447765  0.54944289    -0.38440
N1725       N  0.19963461  0.80007567  0.39525895    -0.37880
N1726       N  0.16214704  0.68447013  0.53737318    -0.37890
C1727       C  0.99669706  0.74835899  0.35863071    -0.04550
C1728       C  0.97086727  0.76374449  0.34237046    -0.01670
C1729       C  0.97482464  0.78050513  0.31386914     0.03320
C1730       C  0.00195561  0.77613080  0.29561822    -0.04550
C1731       C  0.02726303  0.75826397  0.31041927    -0.01660
C1732       C  0.02490333  0.74536545  0.34168652     0.03320
C1733       C  0.93892532  0.76105745  0.35384775     0.37970
C1734       C  0.05677991  0.75422989  0.29459479     0.37960
C1735       C  0.05111750  0.72769344  0.35558881     0.36380
C1736       C  0.95040691  0.80278652  0.30434479     0.36380
N1737       N  0.07201985  0.71307130  0.36618275    -0.38440
N1738       N  0.93045056  0.82087272  0.29892492    -0.38440
N1739       N  0.08092851  0.75064862  0.28296447    -0.37880
N1740       N  0.91341005  0.75884618  0.36276599    -0.37890
C1741       C  0.02537705  0.75741754  0.63782735    -0.04550
C1742       C  0.05254327  0.75318379  0.65814664    -0.01670
C1743       C  0.05376040  0.76474744  0.68985834     0.03320
C1744       C  0.02696101  0.77899581  0.70353544    -0.04550
C1745       C  0.99937834  0.78268545  0.68343770    -0.01660
C1746       C  0.99855845  0.77187942  0.65112109     0.03320
C1747       C  0.08031541  0.73788653  0.64579500     0.37970
C1748       C  0.97223228  0.79910459  0.69547315     0.37960
C1749       C  0.97054604  0.77709255  0.63100363     0.36380
C1750       C  0.08428435  0.76600090  0.70677550     0.36380
N1751       N  0.94820419  0.78125277  0.61485724    -0.38440
N1752       N  0.10915332  0.76815184  0.71917321    -0.38440
N1753       N  0.95055933  0.81242194  0.70494591    -0.37880
N1754       N  0.10243762  0.72567331  0.63593054    -0.37890
C1755       C  0.87775198  0.75309790  0.52631436    -0.04550
C1756       C  0.86244098  0.75117278  0.55525964    -0.01670
C1757       C  0.83088092  0.76325337  0.55830293     0.03320
C1758       C  0.81478669  0.77967754  0.53297139    -0.04550
C1759       C  0.83252232  0.78501100  0.50593443    -0.01660
C1760       C  0.86054738  0.76773825  0.50089110     0.03320
C1761       C  0.87935693  0.73720772  0.58199700     0.37970
C1762       C  0.82338355  0.80900664  0.48333698     0.37960
C1763       C  0.87238110  0.76601287  0.46909426     0.36380
C1764       C  0.81669359  0.76133202  0.58870769     0.36380
N1765       N  0.88173947  0.76454764  0.44378789    -0.38440
N1766       N  0.80677216  0.75986643  0.61374385    -0.38440
N1767       N  0.81820763  0.82871880  0.46515068    -0.37880
N1768       N  0.89281869  0.72591066  0.60334194    -0.37890
C1769       C  0.93527563  0.89182013  0.55226933    -0.04550
C1770       C  0.90492652  0.88085310  0.55902217    -0.01670
C1771       C  0.87947862  0.90128941  0.55384606     0.03320
C1772       C  0.88562836  0.93403486  0.55155810    -0.04550
C1773       C  0.91693988  0.94544927  0.55742079    -0.01660
C1774       C  0.94221220  0.92404665  0.55671617     0.03320
C1775       C  0.89964509  0.84805705  0.56691863     0.37970
C1776       C  0.92341684  0.97880288  0.56248777     0.37960
C1777       C  0.97466579  0.93540132  0.55760256     0.36380
C1778       C  0.84863625  0.88769866  0.54574587     0.36380
N1779       N  0.00041928  0.94492237  0.55810075    -0.38440
N1780       N  0.82438163  0.87656496  0.53831335    -0.38440
N1781       N  0.92866299  0.00537653  0.56665607    -0.37880
N1782       N  0.89520681  0.82197294  0.57331023    -0.37890
C1783       C  0.14910691  0.84343009  0.44156870    -0.04550
C1784       C  0.16267074  0.84811295  0.47214289    -0.01670
C1785       C  0.15371482  0.87541768  0.48798607     0.03320
C1786       C  0.14428241  0.90215961  0.47035149    -0.04550
C1787       C  0.14159743  0.89986976  0.43705512    -0.01660
C1788       C  0.14680486  0.87030232  0.42233536     0.03320
C1789       C  0.17302978  0.82180073  0.49114967     0.37970
C1790       C  0.13031467  0.92645133  0.41882215     0.37960
C1791       C  0.14263413  0.86596779  0.38855009     0.36380
C1792       C  0.15398691  0.87596936  0.52249002     0.36380
N1793       N  0.13961120  0.86205717  0.36153117    -0.38440
N1794       N  0.15431818  0.87613409  0.54982803    -0.38440
N1795       N  0.11988384  0.94769575  0.40505312    -0.37880
N1796       N  0.17816127  0.80164018  0.50865800    -0.37890
C1797       C  0.99700586  0.85964093  0.35608592    -0.04550
C1798       C  0.02701585  0.86538677  0.34430983    -0.01670
C1799       C  0.03705797  0.89668786  0.34188338     0.03320
C1800       C  0.01608301  0.92171892  0.34959254    -0.04550
C1801       C  0.98436890  0.91479098  0.35676347    -0.01660
C1802       C  0.97399060  0.88338322  0.35554758     0.03320
C1803       C  0.05022656  0.84000038  0.34516639     0.37970
C1804       C  0.96369792  0.93869741  0.36920162     0.37960
C1805       C  0.94123492  0.87542529  0.36126589     0.36380
C1806       C  0.06975598  0.90287036  0.33402183     0.36380
N1807       N  0.91514399  0.86892800  0.36586348    -0.38440
N1808       N  0.09563097  0.90805537  0.32744470    -0.38440
N1809       N  0.94774530  0.95739261  0.38074201    -0.37880
N1810       N  0.06851254  0.81975340  0.34766615    -0.37890
C1811       C  0.03530524  0.94725999  0.62783117    -0.04550
C1812       C  0.06174909  0.95488367  0.60953451    -0.01670
C1813       C  0.07729534  0.93095422  0.59326926     0.03320
C1814       C  0.06565537  0.89999117  0.59379362    -0.04550
C1815       C  0.04075373  0.89178889  0.61330977    -0.01660
C1816       C  0.02544417  0.91532540  0.63022616     0.03320
C1817       C  0.07220811  0.98704780  0.60489070     0.37970
C1818       C  0.02783616  0.85997622  0.61288349     0.37960
C1819       C  0.99746141  0.90650646  0.64728184     0.36380
C1820       C  0.10357700  0.93861815  0.57341529     0.36380
N1821       N  0.97519684  0.89912755  0.66060677    -0.38440
N1822       N  0.12442793  0.94506236  0.55769864    -0.38440
N1823       N  0.01658587  0.83506977  0.61264007    -0.37880
N1824       N  0.08110399  0.01228449  0.59977487    -0.37890
C1825       C  0.75483115  0.22357154  0.02622100    -0.04550
C1826       C  0.75045334  0.20217592  0.00031601    -0.01670
C1827       C  0.76762740  0.17305996  0.99900296     0.03320
C1828       C  0.78592884  0.16164827  0.02513242    -0.04550
C1829       C  0.78811771  0.18177841  0.05212762    -0.01660
C1830       C  0.77306392  0.21206140  0.05270843     0.03320
C1831       C  0.72855097  0.20999044  0.97446431     0.37970
C1832       C  0.80566548  0.17082413  0.07999086     0.37960
C1833       C  0.77424077  0.23006851  0.08191389     0.36380
C1834       C  0.76865942  0.15580160  0.96964612     0.36380
N1835       N  0.77466994  0.24336020  0.10593189    -0.38440
N1836       N  0.77120095  0.14291334  0.94575993    -0.38440
N1837       N  0.81973764  0.16206894  0.10219335    -0.37880
N1838       N  0.71095177  0.21547736  0.95362011    -0.37890
C1839       C  0.78936134  0.88084128  0.00287841    -0.04550
C1840       C  0.77280264  0.86761414  0.02783840    -0.01670
C1841       C  0.75871161  0.83677985  0.02469015     0.03320
C1842       C  0.75977527  0.81876783  0.99600832    -0.04550
C1843       C  0.77597717  0.83284788  0.97094730    -0.01660
C1844       C  0.79225097  0.86201121  0.97517573     0.03320
C1845       C  0.77045219  0.88565808  0.05688417     0.37970
C1846       C  0.77641144  0.81786384  0.94010710     0.37960
C1847       C  0.81246873  0.87280645  0.95036632     0.36380
C1848       C  0.74395748  0.82369756  0.05183082     0.36380
N1849       N  0.82855213  0.88137404  0.93062759    -0.38440
N1850       N  0.73284774  0.81508902  0.07475523    -0.38440
N1851       N  0.77743737  0.80744964  0.91478555    -0.37880
N1852       N  0.76866337  0.90007080  0.08011256    -0.37890
C1853       C  0.79592037  0.05188088  0.87039198    -0.04550
C1854       C  0.80491435  0.02997495  0.84644706    -0.01670
C1855       C  0.78577775  0.02482237  0.81845966     0.03320
C1856       C  0.76333061  0.04750193  0.80760140    -0.04550
C1857       C  0.75616264  0.07166581  0.83001805    -0.01660
C1858       C  0.77023843  0.07201199  0.86165294     0.03320
C1859       C  0.83324640  0.01086448  0.85112740     0.37970
C1860       C  0.73408725  0.09632264  0.82111356     0.37960
C1861       C  0.75498789  0.08969210  0.88589053     0.36380
C1862       C  0.78698431  0.99416783  0.80318267     0.36380
N1863       N  0.74098950  0.10233645  0.90516977    -0.38440
N1864       N  0.78752559  0.96912239  0.79202943    -0.38440
N1865       N  0.71702927  0.11680912  0.81465130    -0.37880
N1866       N  0.85584364  0.99563545  0.85465888    -0.37890
C1867       C  0.76210356  0.98100660  0.13982732    -0.04550
C1868       C  0.78417023  0.96818425  0.16213432    -0.01670
C1869       C  0.77404605  0.95999063  0.19332800     0.03320
C1870       C  0.74524382  0.97271181  0.20571986    -0.04550
C1871       C  0.72249073  0.98100291  0.18164704    -0.01660
C1872       C  0.73027585  0.98020265  0.14934853     0.03320
C1873       C  0.81609697  0.96161905  0.15281949     0.37970
C1874       C  0.69067050  0.98995750  0.18870360     0.37960
C1875       C  0.70626123  0.97077558  0.12596530     0.36380
C1876       C  0.79035140  0.93488894  0.21006959     0.36380
N1877       N  0.68856330  0.96125232  0.10669373    -0.38440
N1878       N  0.80294764  0.91405991  0.22276176    -0.38440
N1879       N  0.66503935  0.99748389  0.19367558    -0.37880
N1880       N  0.84173765  0.95639527  0.14547231    -0.37890
C1881       C  0.26171288  0.81509756  0.00569717    -0.04550
C1882       C  0.24032103  0.82623188  0.98122658    -0.01670
C1883       C  0.22542706  0.85657167  0.98312387     0.03320
C1884       C  0.23253027  0.87777758  0.00846647    -0.04550
C1885       C  0.25352686  0.86657028  0.03292684    -0.01660
C1886       C  0.26793786  0.83611266  0.03151595     0.03320
C1887       C  0.23556433  0.80800812  0.95233788     0.37970
C1888       C  0.26437975  0.88832602  0.05773925     0.37960
C1889       C  0.29089681  0.82774260  0.05634749     0.36380
C1890       C  0.20451510  0.86717760  0.95742176     0.36380
N1891       N  0.30934193  0.82295514  0.07666176    -0.38440
N1892       N  0.18775941  0.87560355  0.93693571    -0.38440
N1893       N  0.27476968  0.90537882  0.07697836    -0.37880
N1894       N  0.23169094  0.79453427  0.92859038    -0.37890
C1895       C  0.21281173  0.16055009  0.96210267    -0.04550
C1896       C  0.22229300  0.17590328  0.93413851    -0.01670
C1897       C  0.23793770  0.20691401  0.93519629     0.03320
C1898       C  0.25042492  0.22134445  0.96416074    -0.04550
C1899       C  0.24250897  0.20436345  0.99141452    -0.01660
C1900       C  0.21931080  0.17945070  0.99027157     0.03320
C1901       C  0.21269737  0.16188387  0.90409949     0.37970
C1902       C  0.25779923  0.21179773  0.02169648     0.37960
C1903       C  0.20437300  0.17212485  0.01967771     0.36380
C1904       C  0.23981430  0.22427303  0.90619417     0.36380
N1905       N  0.19284781  0.16643492  0.04333098    -0.38440
N1906       N  0.24028882  0.23785281  0.88266071    -0.38440
N1907       N  0.26873895  0.21550866  0.04693399    -0.37880
N1908       N  0.20441113  0.15151491  0.87978485    -0.37890
C1909       C  0.24130741  0.01086737  0.84743400    -0.04550
C1910       C  0.24320218  0.04128959  0.83432345    -0.01670
C1911       C  0.25252697  0.04588317  0.80232175     0.03320
C1912       C  0.26429297  0.02045297  0.78337867    -0.04550
C1913       C  0.26286272  0.99005019  0.79756419    -0.01660
C1914       C  0.24970855  0.98536057  0.82772517     0.03320
C1915       C  0.23679632  0.06821108  0.85425597     0.37970
C1916       C  0.27425057  0.96208757  0.78211547     0.37960
C1917       C  0.24445559  0.95338999  0.83865813     0.36380
C1918       C  0.24845416  0.07707000  0.78943088     0.36380
N1919       N  0.24015833  0.92797070  0.84730254    -0.38440
N1920       N  0.24370528  0.10251078  0.78078920    -0.38440
N1921       N  0.28197040  0.93741766  0.77338465    -0.37880
N1922       N  0.23220258  0.08980073  0.87031765    -0.37890
C1923       C  0.22318696  0.01906362  0.12669273    -0.04550
C1924       C  0.22202796  0.04660576  0.14626082    -0.01670
C1925       C  0.23930818  0.04908377  0.17573286     0.03320
C1926       C  0.25631714  0.02308851  0.18876919    -0.04550
C1927       C  0.25771983  0.99553098  0.16913338    -0.01660
C1928       C  0.23983655  0.99302648  0.13952399     0.03320
C1929       C  0.20112318  0.07237578  0.13688785     0.37970
C1930       C  0.27718584  0.96920504  0.17925319     0.37960
C1931       C  0.23574167  0.96280011  0.12393388     0.36380
C1932       C  0.23845200  0.07874635  0.19301942     0.36380
N1933       N  0.23087120  0.93844122  0.11218578    -0.38440
N1934       N  0.23710932  0.10286414  0.20597371    -0.38440
N1935       N  0.29279292  0.94777383  0.18625962    -0.37880
N1936       N  0.18431650  0.09283061  0.12960430    -0.37890
C1937       C  0.48888868  0.14485519  0.26750007    -0.04550
C1938       C  0.47201312  0.16788141  0.28444984    -0.01670
C1939       C  0.46820885  0.19932213  0.27167647     0.03320
C1940       C  0.48840950  0.21065705  0.24739328    -0.04550
C1941       C  0.50400515  0.18633545  0.23097019    -0.01660
C1942       C  0.49763441  0.15437120  0.23740816     0.03320
C1943       C  0.45701081  0.15912946  0.31314584     0.37970
C1944       C  0.52972423  0.19266104  0.21055915     0.37960
C1945       C  0.48329009  0.13546010  0.21234506     0.36380
C1946       C  0.44023668  0.21695954  0.27936993     0.36380
N1947       N  0.46915543  0.12025598  0.19382595    -0.38440
N1948       N  0.41681355  0.22976129  0.28480567    -0.38440
N1949       N  0.55113274  0.19657263  0.19475681    -0.37880
N1950       N  0.44501030  0.15225568  0.33621610    -0.37890
C1951       C  0.50065808  0.86431883  0.28007358    -0.04550
C1952       C  0.47656812  0.84142748  0.27331626    -0.01670
C1953       C  0.48201656  0.81438850  0.25395330     0.03320
C1954       C  0.51323336  0.80428330  0.24732184    -0.04550
C1955       C  0.53805782  0.82633722  0.25677231    -0.01660
C1956       C  0.53126863  0.85643598  0.27089790     0.03320
C1957       C  0.44525883  0.84615490  0.28576182     0.37970
C1958       C  0.57115314  0.81945913  0.25312517     0.37960
C1959       C  0.55545215  0.88037600  0.27493499     0.36380
C1960       C  0.45451223  0.79854149  0.23988120     0.36380
N1961       N  0.57334212  0.90092888  0.27798260    -0.38440
N1962       N  0.43106645  0.78823769  0.22899641    -0.38440
N1963       N  0.59846473  0.81701139  0.25265587    -0.37880
N1964       N  0.42036882  0.84994576  0.29576655    -0.37890
C1965       C  0.35654852  0.02196002  0.28054819    -0.04550
C1966       C  0.34835667  0.04711762  0.26014435    -0.01670
C1967       C  0.31941470  0.04678156  0.24075926     0.03320
C1968       C  0.29798038  0.02045346  0.24019435    -0.04550
C1969       C  0.30722351  0.99490493  0.26001006    -0.01660
C1970       C  0.33384808  0.99712567  0.28180590     0.03320
C1971       C  0.36991606  0.07368578  0.25978426     0.37970
C1972       C  0.29032588  0.96516332  0.25717317     0.37960
C1973       C  0.33974677  0.97180002  0.30409356     0.36380
C1974       C  0.31184074  0.07425238  0.22215237     0.36380
N1975       N  0.34439701  0.95166063  0.32191504    -0.38440
N1976       N  0.30671582  0.09712934  0.20822787    -0.38440
N1977       N  0.27777664  0.94086653  0.25513513    -0.37880
N1978       N  0.38732426  0.09484947  0.26051910    -0.37890
C1979       C  0.64223008  0.98384581  0.28381591    -0.04550
C1980       C  0.66179206  0.01076545  0.27966917    -0.01670
C1981       C  0.69129531  0.00904404  0.26423163     0.03320
C1982       C  0.70476604  0.97971342  0.25490887    -0.04550
C1983       C  0.68620633  0.95243059  0.26076684    -0.01660
C1984       C  0.65621037  0.95435464  0.27609062     0.03320
C1985       C  0.65106489  0.04121285  0.29123191     0.37970
C1986       C  0.69729205  0.92215826  0.24964338     0.37960
C1987       C  0.64287491  0.92584339  0.28825957     0.36380
C1988       C  0.70548570  0.03853868  0.25528116     0.36380
N1989       N  0.63485966  0.90248338  0.29940628    -0.38440
N1990       N  0.71436201  0.06342246  0.24887161    -0.38440
N1991       N  0.70591862  0.89800599  0.24032708    -0.37880
N1992       N  0.64267985  0.06546676  0.30052522    -0.37890
C1993       C  0.32523795  0.06450517  0.12769534    -0.04550
C1994       C  0.32667403  0.03190970  0.13362882    -0.01670
C1995       C  0.34955173  0.02111987  0.15528230     0.03320
C1996       C  0.37072157  0.04331087  0.16960049    -0.04550
C1997       C  0.36545657  0.07594523  0.16742899    -0.01660
C1998       C  0.34142059  0.08661392  0.14688730     0.03320
C1999       C  0.30995730  0.00942357  0.11272730     0.37970
C2000       C  0.38600874  0.09851620  0.18399624     0.37960
C2001       C  0.33605000  0.12012275  0.14230984     0.36380
C2002       C  0.35495091  0.98730330  0.15805595     0.36380
N2003       N  0.33146396  0.14676855  0.13861147    -0.38440
N2004       N  0.35968475  0.96047681  0.16000681    -0.38440
N2005       N  0.40170936  0.11741482  0.19684705    -0.37880
N2006       N  0.29760236  0.99143289  0.09554077    -0.37890
C2007       C  0.60992293  0.98898152  0.13562819    -0.04550
C2008       C  0.61581277  0.96142417  0.11811317    -0.01670
C2009       C  0.62152148  0.96339135  0.08591759     0.03320
C2010       C  0.62509888  0.99309815  0.07243741    -0.04550
C2011       C  0.61762295  0.02074445  0.08932661    -0.01660
C2012       C  0.61102622  0.01887557  0.12127074     0.03320
C2013       C  0.61802767  0.93137003  0.13387657     0.37970
C2014       C  0.61958421  0.05134964  0.07427695     0.37960
C2015       C  0.60533059  0.04773361  0.13898765     0.36380
C2016       C  0.62640275  0.93515441  0.06723518     0.36380
N2017       N  0.60104139  0.07088043  0.15292746    -0.38440
N2018       N  0.62982088  0.91265965  0.05210016    -0.38440
N2019       N  0.62154559  0.07567343  0.06232904    -0.37880
N2020       N  0.62087699  0.90753072  0.14661765    -0.37890
C2021       C  0.71004124  0.26892993  0.02024697    -0.04550
C2022       C  0.68798241  0.26117881  0.04377432    -0.01670
C2023       C  0.65530657  0.27070569  0.04113515     0.03320
C2024       C  0.64359799  0.28929512  0.01569658    -0.04550
C2025       C  0.66551061  0.29751808  0.99264717    -0.01660
C2026       C  0.69726412  0.28578868  0.99370341     0.03320
C2027       C  0.69781843  0.24166784  0.07015675     0.37970
C2028       C  0.65452283  0.31661448  0.96614563     0.37960
C2029       C  0.71396029  0.28629388  0.96456431     0.36380
C2030       C  0.63304338  0.25970426  0.06382239     0.36380
N2031       N  0.72482950  0.28595281  0.93989642    -0.38440
N2032       N  0.61520065  0.25082339  0.08183227    -0.38440
N2033       N  0.64579884  0.33193683  0.94509599    -0.37880
N2034       N  0.70417042  0.22575925  0.09150605    -0.37890
C2035       C  0.36187362  0.29839726  0.98584221    -0.04550
C2036       C  0.33833064  0.29805002  0.00894054    -0.01670
C2037       C  0.30803438  0.28281546  0.00373985     0.03320
C2038       C  0.29835607  0.26812320  0.97424340    -0.04550
C2039       C  0.32136255  0.27050439  0.95025175    -0.01660
C2040       C  0.35259181  0.28455449  0.95618424     0.03320
C2041       C  0.34534929  0.31397400  0.03897264     0.37970
C2042       C  0.31344739  0.25821734  0.91901831     0.37960
C2043       C  0.37580062  0.28361587  0.93195890     0.36380
C2044       C  0.28733865  0.28260242  0.03012578     0.36380
N2045       N  0.39461461  0.28268424  0.91280015    -0.38440
N2046       N  0.27281452  0.28391285  0.05270906    -0.38440
N2047       N  0.30839147  0.24850024  0.89368518    -0.37880
N2048       N  0.35089201  0.32672688  0.06285542    -0.37890
C2049       C  0.50465480  0.32391899  0.85877892    -0.04550
C2050       C  0.53303670  0.31753421  0.84214430    -0.01670
C2051       C  0.53289468  0.29806827  0.81440774     0.03320
C2052       C  0.50439262  0.29067408  0.79705679    -0.04550
C2053       C  0.47572142  0.30052933  0.81147772    -0.01660
C2054       C  0.47592813  0.31572248  0.84224807     0.03320
C2055       C  0.56351457  0.32727965  0.85634181     0.37970
C2056       C  0.44549540  0.29380827  0.79571289     0.37960
C2057       C  0.44644063  0.32287279  0.85705979     0.36380
C2058       C  0.56209124  0.28276643  0.80565819     0.36380
N2059       N  0.42283337  0.32908594  0.86868673    -0.38440
N2060       N  0.58518426  0.26986239  0.79923166    -0.38440
N2061       N  0.42062684  0.28936723  0.78401074    -0.37880
N2062       N  0.58779128  0.33470976  0.86782611    -0.37890
C2063       C  0.50384638  0.28836888  0.14356905    -0.04550
C2064       C  0.53059802  0.28455249  0.16417066    -0.01670
C2065       C  0.52805077  0.26990569  0.19444463     0.03320
C2066       C  0.49845160  0.25779371  0.20503320    -0.04550
C2067       C  0.47195717  0.26099126  0.18384157    -0.01660
C2068       C  0.47415177  0.27769315  0.15485515     0.03320
C2069       C  0.56125412  0.29451626  0.15347764     0.37970
C2070       C  0.44233135  0.24587648  0.19126784     0.37960
C2071       C  0.44534500  0.28319795  0.13582807     0.36380
C2072       C  0.55706915  0.26518686  0.21302659     0.36380
N2073       N  0.42241574  0.28767663  0.12062970    -0.38440
N2074       N  0.58141819  0.26170548  0.22605575    -0.38440
N2075       N  0.41876331  0.23350013  0.19698604    -0.37880
N2076       N  0.58571902  0.30247710  0.14489668    -0.37890
C2077       C  0.54486823  0.15297233  0.08080467    -0.04550
C2078       C  0.54789171  0.16330482  0.11207118    -0.01670
C2079       C  0.53050820  0.14590951  0.13296387     0.03320
C2080       C  0.52809956  0.11312812  0.12768311    -0.04550
C2081       C  0.53922029  0.09977466  0.09932030    -0.01660
C2082       C  0.54697643  0.12034716  0.07498397     0.03320
C2083       C  0.55742088  0.19549017  0.11948316     0.37970
C2084       C  0.53967923  0.06593003  0.09394966     0.37960
C2085       C  0.55371863  0.10838751  0.04384164     0.36380
C2086       C  0.50488398  0.16240686  0.14761203     0.36380
N2087       N  0.55932198  0.09827925  0.01920093    -0.38440
N2088       N  0.48361236  0.17685168  0.15641350    -0.38440
N2089       N  0.53978528  0.03892231  0.08956191    -0.37880
N2090       N  0.56489507  0.22124265  0.12535316    -0.37890
C2091       C  0.31177153  0.16086603  0.96488151    -0.04550
C2092       C  0.31760398  0.17377350  0.99552649    -0.01670
C2093       C  0.33489425  0.20117908  0.99844256     0.03320
C2094       C  0.35479489  0.20793999  0.97344297    -0.04550
C2095       C  0.34656811  0.19760980  0.94239657    -0.01660
C2096       C  0.32205765  0.17590027  0.93806187     0.03320
C2097       C  0.31051901  0.15711524  0.02444728     0.37970
C2098       C  0.36475006  0.20663122  0.91562439     0.37960
C2099       C  0.31018079  0.16643503  0.90678659     0.36380
C2100       C  0.33703878  0.21678943  0.02919046     0.36380
N2101       N  0.30022752  0.15915011  0.88191745    -0.38440
N2102       N  0.33825601  0.22837704  0.05410742    -0.38440
N2103       N  0.37824025  0.21361542  0.89349135    -0.37880
N2104       N  0.30529982  0.14436464  0.04772433    -0.37890
C2105       C  0.60950948  0.15899664  0.96341012    -0.04550
C2106       C  0.62901488  0.15652841  0.93717117    -0.01670
C2107       C  0.66176433  0.15431070  0.94233622     0.03320
C2108       C  0.67371379  0.14874265  0.97304237    -0.04550
C2109       C  0.65595295  0.15815677  0.99889703    -0.01660
C2110       C  0.62342145  0.16320700  0.99406575     0.03320
C2111       C  0.61568210  0.15728678  0.90503855     0.37970
C2112       C  0.67055234  0.16049131  0.03041537     0.37960
C2113       C  0.60519108  0.17554473  0.01977898     0.36380
C2114       C  0.68291567  0.15462066  0.91619923     0.36380
N2115       N  0.59119922  0.18644479  0.04013253    -0.38440
N2116       N  0.69946231  0.15588471  0.89508500    -0.38440
N2117       N  0.68201704  0.16208635  0.05564997    -0.37880
N2118       N  0.60541974  0.15780988  0.87931024    -0.37890
C2119       C  0.64889009  0.03282291  0.74197973    -0.04550
C2120       C  0.66528250  0.06075878  0.73463275    -0.01670
C2121       C  0.69615892  0.06724277  0.74804626     0.03320
C2122       C  0.71290991  0.04453333  0.76673567    -0.04550
C2123       C  0.69589338  0.01707271  0.77489385    -0.01660
C2124       C  0.66438222  0.01152488  0.76298522     0.03320
C2125       C  0.64928376  0.08404654  0.71489661     0.37970
C2126       C  0.71064671  0.99339708  0.79477391     0.37960
C2127       C  0.64684557  0.98466465  0.77439193     0.36380
C2128       C  0.70922340  0.09857143  0.74480436     0.36380
N2129       N  0.63282574  0.96363040  0.78414065    -0.38440
N2130       N  0.71830605  0.12422592  0.74268870    -0.38440
N2131       N  0.72116645  0.97312930  0.80987615    -0.37880
N2132       N  0.63651293  0.10257535  0.69909048    -0.37890
C2133       C  0.30779139  0.02598565  0.73667726    -0.04550
C2134       C  0.32669869  0.05421881  0.73888353    -0.01670
C2135       C  0.35717509  0.05659029  0.72459426     0.03320
C2136       C  0.36873474  0.03217786  0.70524771    -0.04550
C2137       C  0.34826828  0.00578696  0.70007952    -0.01660
C2138       C  0.32050010  0.00136617  0.71776521     0.03320
C2139       C  0.31486428  0.08197936  0.75438225     0.37970
C2140       C  0.35676913  0.98186319  0.67706349     0.37960
C2141       C  0.30560513  0.97063326  0.71582318     0.36380
C2142       C  0.37689337  0.08420965  0.72977395     0.36380
N2143       N  0.29508707  0.94554697  0.71223159    -0.38440
N2144       N  0.39310569  0.10608518  0.73342837    -0.38440
N2145       N  0.36356651  0.96288260  0.65869187    -0.37880
N2146       N  0.30710349  0.10566899  0.76545029    -0.37890
C2147       C  0.51237030  0.17188624  0.73887280    -0.04550
C2148       C  0.51974981  0.19560430  0.71703409    -0.01670
C2149       C  0.52468742  0.22773986  0.72738289     0.03320
C2150       C  0.51129757  0.23998805  0.75556342    -0.04550
C2151       C  0.50791442  0.21668015  0.77864378    -0.01660
C2152       C  0.51094061  0.18371946  0.77118309     0.03320
C2153       C  0.52841414  0.18632526  0.68553472     0.37970
C2154       C  0.51210194  0.22657890  0.81120725     0.37960
C2155       C  0.52159476  0.16484096  0.79777501     0.36380
C2156       C  0.55280833  0.24318178  0.71652781     0.36380
N2157       N  0.53314434  0.15176523  0.81914886    -0.38440
N2158       N  0.57619224  0.25437053  0.70848227    -0.38440
N2159       N  0.51852549  0.23474796  0.83675534    -0.37880
N2160       N  0.53523880  0.17897579  0.66029909    -0.37890
C2161       C  0.53665483  0.88943989  0.71530807    -0.04550
C2162       C  0.51164521  0.86748573  0.70959603    -0.01670
C2163       C  0.51041850  0.83848394  0.72603284     0.03320
C2164       C  0.53633316  0.82807244  0.74585056    -0.04550
C2165       C  0.56317308  0.84859275  0.74861356    -0.01660
C2166       C  0.56346304  0.87862148  0.73303564     0.03320
C2167       C  0.48556991  0.87599323  0.68788348     0.37970
C2168       C  0.59008963  0.83961127  0.76875282     0.37960
C2169       C  0.59126544  0.89864372  0.73537882     0.36380
C2170       C  0.48070693  0.82123067  0.72423864     0.36380
N2171       N  0.61368527  0.91445701  0.73665987    -0.38440
N2172       N  0.45598595  0.80929034  0.72231229    -0.38440
N2173       N  0.61163788  0.83281382  0.78501007    -0.37880
N2174       N  0.46481185  0.88271061  0.67058304    -0.37890
C2175       C  0.45376431  0.14277896  0.83306231    -0.04550
C2176       C  0.47631015  0.14747295  0.85799054    -0.01670
C2177       C  0.48481448  0.17792356  0.86581155     0.03320
C2178       C  0.46287011  0.20239245  0.85917056    -0.04550
C2179       C  0.43809012  0.19759001  0.83655446    -0.01660
C2180       C  0.43588537  0.16832471  0.82082293     0.03320
C2181       C  0.49348059  0.12159716  0.87329412     0.37970
C2182       C  0.41479005  0.22199650  0.83030147     0.37960
C2183       C  0.41605579  0.16514005  0.79237610     0.36380
C2184       C  0.51554373  0.18350022  0.88149866     0.36380
N2185       N  0.40032601  0.16399928  0.76941011    -0.38440
N2186       N  0.54074775  0.18766586  0.89244936    -0.38440
N2187       N  0.39559459  0.24106726  0.82577462    -0.37880
N2188       N  0.50716334  0.10128477  0.88574701    -0.37890
C2189       C  0.34880453  0.02592883  0.87395220    -0.04550
C2190       C  0.34814260  0.05593644  0.85993178    -0.01670
C2191       C  0.34963522  0.05799414  0.82699652     0.03320
C2192       C  0.35302241  0.02994908  0.80905407    -0.04550
C2193       C  0.34350108  0.00115994  0.82160697    -0.01660
C2194       C  0.34535946  0.99835826  0.85442627     0.03320
C2195       C  0.34922149  0.08461997  0.87888284     0.37970
C2196       C  0.34418484  0.97259327  0.80231975     0.37960
C2197       C  0.34721982  0.96667478  0.86747162     0.36380
C2198       C  0.35869223  0.08798456  0.81384168     0.36380
N2199       N  0.34870543  0.94143767  0.87761809    -0.38440
N2200       N  0.36651526  0.11216490  0.80438180    -0.38440
N2201       N  0.34670516  0.94964420  0.78757125    -0.37880
N2202       N  0.35081012  0.10776051  0.89359591    -0.37890
C2203       C  0.60548431  0.00769450  0.87263839    -0.04550
C2204       C  0.61786968  0.03850224  0.87548484    -0.01670
C2205       C  0.64731352  0.04487853  0.86265646     0.03320
C2206       C  0.67029189  0.02049889  0.86183952    -0.04550
C2207       C  0.65949226  0.98885334  0.86483571    -0.01660
C2208       C  0.62675132  0.98272558  0.86774776     0.03320
C2209       C  0.59749783  0.06422061  0.88515489     0.37970
C2210       C  0.68131249  0.96250817  0.86609546     0.37960
C2211       C  0.61493231  0.95080601  0.86504955     0.36380
C2212       C  0.65600902  0.07739406  0.85671733     0.36380
N2213       N  0.60641299  0.92495960  0.86263801    -0.38440
N2214       N  0.66210426  0.10357244  0.85236759    -0.38440
N2215       N  0.69812930  0.94095532  0.86728475    -0.37880
N2216       N  0.58125178  0.08465737  0.89285385    -0.37890
C2217       C  0.31144746  0.77495161  0.00535573    -0.04550
C2218       C  0.32864927  0.75867305  0.02998927    -0.01670
C2219       C  0.36086330  0.74888524  0.02667320     0.03320
C2220       C  0.37732361  0.75556839  0.99916655    -0.04550
C2221       C  0.36004941  0.77116976  0.97441370    -0.01660
C2222       C  0.32846533  0.78219750  0.97811279     0.03320
C2223       C  0.31485541  0.75475079  0.06041701     0.37970
C2224       C  0.37512522  0.77617363  0.94461942     0.37960
C2225       C  0.31418768  0.80198836  0.95380705     0.36380
C2226       C  0.37762512  0.73289030  0.05228344     0.36380
N2227       N  0.30394490  0.81813537  0.93406331    -0.38440
N2228       N  0.39089774  0.71985011  0.07265901    -0.38440
N2229       N  0.38708499  0.78004268  0.92082030    -0.37880
N2230       N  0.30544117  0.75209407  0.08555749    -0.35970
C2231       C  0.65868086  0.73309081  0.97775399    -0.04550
C2232       C  0.67971813  0.72771607  0.00421406    -0.01670
C2233       C  0.70461428  0.74912520  0.01259784     0.03320
C2234       C  0.71700691  0.77017719  0.99029651    -0.04550
C2235       C  0.69817742  0.77284125  0.96132794    -0.01660
C2236       C  0.66937676  0.75472365  0.95544786     0.03320
C2237       C  0.67366944  0.70147108  0.02506604     0.37970
C2238       C  0.70659710  0.79500005  0.93744998     0.37960
C2239       C  0.65194431  0.75681243  0.92547539     0.36380
C2240       C  0.71455011  0.75097413  0.04560429     0.36380
N2241       N  0.63852873  0.75874208  0.90123208    -0.38440
N2242       N  0.72033851  0.75099105  0.07253491    -0.38440
N2243       N  0.71053112  0.81255588  0.91723110    -0.37880
N2244       N  0.66881676  0.68063113  0.04166896    -0.37890
C2245       C  0.51573737  0.75872647  0.20187347    -0.04550
C2246       C  0.48849849  0.74229404  0.18817361    -0.01670
C2247       C  0.48710386  0.73216833  0.15543419     0.03320
C2248       C  0.51502381  0.73101012  0.13803152    -0.04550
C2249       C  0.54346959  0.73994746  0.15546354    -0.01660
C2250       C  0.54275471  0.75873282  0.18318894     0.03320
C2251       C  0.46386689  0.73120228  0.20801755     0.37970
C2252       C  0.57407221  0.72626546  0.14781039     0.37960
C2253       C  0.57242841  0.77294209  0.19406821     0.36380
C2254       C  0.45784453  0.72020066  0.14100103     0.36380
N2255       N  0.59799542  0.78186665  0.19954700    -0.38440
N2256       N  0.43428496  0.71053679  0.12977376    -0.38440
N2257       N  0.59836760  0.71543064  0.14191276    -0.37880
N2258       N  0.44398721  0.72058826  0.22274414    -0.37890
C2259       C  0.51887495  0.76787844  0.85935483    -0.04550
C2260       C  0.54726124  0.75856338  0.84506485    -0.01670
C2261       C  0.55457986  0.76905524  0.81393285     0.03320
C2262       C  0.53352794  0.78896164  0.79586628    -0.04550
C2263       C  0.50635064  0.79978145  0.81145281    -0.01660
C2264       C  0.49772421  0.78694848  0.84081637     0.03320
C2265       C  0.56845898  0.73720549  0.86181791     0.37970
C2266       C  0.48642823  0.82431373  0.79797592     0.37960
C2267       C  0.46548062  0.79182930  0.85080825     0.36380
C2268       C  0.58507723  0.76113735  0.80148794     0.36380
N2269       N  0.43969041  0.79555210  0.85850492    -0.38440
N2270       N  0.60975486  0.75509528  0.79202840    -0.38440
N2271       N  0.46971777  0.84419312  0.78901819    -0.37880
N2272       N  0.58503922  0.71944868  0.87480844    -0.37890
C2273       C  0.50437222  0.90357092  0.85916588    -0.04550
C2274       C  0.49518822  0.90736061  0.89059557    -0.01670
C2275       C  0.51816119  0.90558442  0.91514716     0.03320
C2276       C  0.54661402  0.88897529  0.90984511    -0.04550
C2277       C  0.55387497  0.88056026  0.87854014    -0.01660
C2278       C  0.53464070  0.89157630  0.85326312     0.03320
C2279       C  0.46264946  0.91584485  0.89724272     0.37970
C2280       C  0.57897837  0.85827108  0.87224588     0.37960
C2281       C  0.54795930  0.89521109  0.82271768     0.36380
C2282       C  0.50994594  0.91533003  0.94681614     0.36380
N2283       N  0.55914344  0.90038447  0.79888678    -0.38440
N2284       N  0.50309339  0.92293676  0.97197427    -0.38440
N2285       N  0.59823409  0.83979170  0.86677745    -0.37880
N2286       N  0.43669270  0.92243283  0.90233553    -0.37890
C2287       C  0.54990505  0.82909518  0.15588127    -0.04550
C2288       C  0.56476246  0.85063334  0.17688204    -0.01670
C2289       C  0.54646625  0.87551180  0.18781334     0.03320
C2290       C  0.51336894  0.87417871  0.18184835    -0.04550
C2291       C  0.49843879  0.84612452  0.17204380    -0.01660
C2292       C  0.51653772  0.82463147  0.15560106     0.03320
C2293       C  0.59904252  0.85059518  0.18137470     0.37970
C2294       C  0.46407292  0.84322566  0.17194896     0.37960
C2295       C  0.50025421  0.80541647  0.13141049     0.36380
C2296       C  0.56170016  0.90355633  0.20122548     0.36380
N2297       N  0.48650600  0.79180745  0.11136975    -0.38440
N2298       N  0.57417554  0.92595665  0.21153505    -0.38440
N2299       N  0.43669943  0.84112873  0.17201293    -0.37880
N2300       N  0.62638823  0.84990718  0.18507391    -0.37890
C2301       C  0.43066944  0.88981707  0.06072339    -0.04550
C2302       C  0.39924390  0.87925230  0.05607176    -0.01670
C2303       C  0.37519555  0.90089977  0.04830582     0.03320
C2304       C  0.38134876  0.93389292  0.04984015    -0.04550
C2305       C  0.41247189  0.94438087  0.05927384    -0.01660
C2306       C  0.43692987  0.92232324  0.06485652     0.03320
C2307       C  0.39219729  0.84560148  0.05639440     0.37970
C2308       C  0.42156188  0.97741900  0.05885657     0.37960
C2309       C  0.46899134  0.93372611  0.07192228     0.36380
C2310       C  0.34635416  0.88836636  0.03338740     0.36380
N2311       N  0.49431567  0.94345771  0.07740165    -0.38440
N2312       N  0.32473360  0.87778945  0.01939823    -0.38440
N2313       N  0.43014440  0.00338104  0.05829239    -0.37880
N2314       N  0.38652477  0.81887300  0.05671425    -0.37890
C2315       C  0.66806751  0.84473584  0.00293225    -0.04550
C2316       C  0.65981533  0.84437143  0.97008772    -0.01670
C2317       C  0.66932108  0.86930863  0.95144752     0.03320
C2318       C  0.68370066  0.89552535  0.96614549    -0.04550
C2319       C  0.69407274  0.89509652  0.99823987    -0.01660
C2320       C  0.68645467  0.86936544  0.01666959     0.03320
C2321       C  0.63443076  0.82404763  0.95743118     0.37970
C2322       C  0.71001893  0.92221584  0.01307920     0.37960
C2323       C  0.69061437  0.87201715  0.05091223     0.36380
C2324       C  0.66192395  0.86958414  0.91769187     0.36380
N2325       N  0.69321573  0.87455404  0.07813046    -0.38440
N2326       N  0.65694327  0.87030516  0.89066641    -0.38440
N2327       N  0.72249779  0.94372506  0.02523743    -0.37880
N2328       N  0.61290517  0.80930048  0.94793794    -0.37890
C2329       C  0.81232103  0.77491144  0.99852466    -0.04550
C2330       C  0.82904747  0.79225720  0.02361710    -0.01670
C2331       C  0.85998771  0.80606168  0.01945660     0.03320
C2332       C  0.87290624  0.80775684  0.98927737    -0.04550
C2333       C  0.85338962  0.79540899  0.96385363    -0.01660
C2334       C  0.82708540  0.77534972  0.96906500     0.03320
C2335       C  0.81532484  0.79744815  0.05386274     0.37970
C2336       C  0.85997714  0.80385358  0.93156997     0.37960
C2337       C  0.81542116  0.75579592  0.94292639     0.36380
C2338       C  0.87780927  0.81977686  0.04608830     0.36380
N2339       N  0.80845986  0.74064723  0.92084393    -0.38440
N2340       N  0.89172499  0.83098699  0.06746868    -0.38440
N2341       N  0.86504388  0.81068204  0.90586075    -0.37880
N2342       N  0.80646058  0.80353903  0.07872082    -0.37890
C2343       C  0.15454614  0.78871347  0.00351406    -0.04550
C2344       C  0.17598246  0.79527655  0.02940850    -0.01670
C2345       C  0.20621530  0.78054997  0.03236051     0.03320
C2346       C  0.21811302  0.76143268  0.00770484    -0.04550
C2347       C  0.19632202  0.75411584  0.98199345    -0.01660
C2348       C  0.16490245  0.76733125  0.98015126     0.03320
C2349       C  0.16673128  0.81755921  0.05366882     0.37970
C2350       C  0.20616003  0.73364549  0.95670430     0.37960
C2351       C  0.14293407  0.75844107  0.95443544     0.36380
C2352       C  0.22471378  0.78494773  0.06161001     0.36380
N2353       N  0.12532231  0.75141617  0.93390375    -0.38440
N2354       N  0.23848685  0.78877082  0.08551442    -0.38440
N2355       N  0.21329283  0.71756551  0.93591462    -0.37880
N2356       N  0.15938657  0.83540097  0.07291612    -0.37890
C2357       C  0.04267045  0.78277710  0.86639625    -0.04550
C2358       C  0.04056091  0.75189021  0.85337009    -0.01670
C2359       C  0.03255612  0.74700071  0.82099905     0.03320
C2360       C  0.03887452  0.77080089  0.79831204    -0.04550
C2361       C  0.05381772  0.79863467  0.81201551    -0.01660
C2362       C  0.05069213  0.80650770  0.84494366     0.03320
C2363       C  0.04830741  0.72484955  0.87301643     0.37970
C2364       C  0.07746117  0.81545078  0.79494673     0.37960
C2365       C  0.05714767  0.83815220  0.85646761     0.36380
C2366       C  0.01679581  0.71746592  0.81306185     0.36380
N2367       N  0.06216529  0.86359204  0.86556690    -0.38440
N2368       N  0.00402564  0.69364286  0.80804518    -0.38440
N2369       N  0.09733568  0.82848840  0.78216051    -0.37880
N2370       N  0.05517532  0.70345016  0.88856577    -0.37890
C2371       C  0.99270642  0.81335833  0.14135202    -0.04550
C2372       C  0.96976715  0.79073046  0.14998109    -0.01670
C2373       C  0.97294735  0.77370282  0.17952517     0.03320
C2374       C  0.00032241  0.77712692  0.20046207    -0.04550
C2375       C  0.02383634  0.79830834  0.19008328    -0.01660
C2376       C  0.01798658  0.81879265  0.16410530     0.03320
C2377       C  0.94394795  0.78371164  0.12767285     0.37970
C2378       C  0.05566228  0.79778208  0.20408556     0.37960
C2379       C  0.03960136  0.84508193  0.15991149     0.36380
C2380       C  0.94829468  0.75190344  0.18771404     0.36380
N2381       N  0.05673796  0.86602107  0.15639361    -0.38440
N2382       N  0.92823565  0.73470103  0.19407094    -0.38440
N2383       N  0.08179923  0.79798513  0.21354235    -0.37880
N2384       N  0.92362901  0.77818006  0.10933843    -0.37890
C2385       C  0.80563612  0.26908461  0.02241897    -0.04550
C2386       C  0.82748222  0.27317244  0.04894842    -0.01670
C2387       C  0.85851088  0.25818417  0.05041891     0.03320
C2388       C  0.86703235  0.23488296  0.02779649    -0.04550
C2389       C  0.84247088  0.22697777  0.00482692    -0.01660
C2390       C  0.81532007  0.24659294  0.99949962     0.03320
C2391       C  0.81732198  0.29114016  0.07586722     0.37970
C2392       C  0.84585950  0.19917410  0.98483958     0.37960
C2393       C  0.79793576  0.24322270  0.96950434     0.36380
C2394       C  0.88131730  0.26671275  0.07534826     0.36380
N2395       N  0.78529635  0.23956765  0.94498395    -0.38440
N2396       N  0.89932706  0.27370946  0.09551964    -0.38440
N2397       N  0.84848222  0.17704626  0.96890462    -0.37880
N2398       N  0.80900720  0.30475502  0.09788274    -0.37890
C2399       C  0.99956295  0.24589047  0.85304874    -0.04550
C2400       C  0.02709998  0.25908802  0.84055251    -0.01670
C2401       C  0.02587357  0.27697120  0.81148952     0.03320
C2402       C  0.99662768  0.28215153  0.79336675    -0.04550
C2403       C  0.96928780  0.26949429  0.80752068    -0.01660
C2404       C  0.97141394  0.24886221  0.83380060     0.03320
C2405       C  0.05720020  0.25069944  0.85552921     0.37970
C2406       C  0.93763135  0.27709705  0.79607430     0.37960
C2407       C  0.94433617  0.22855786  0.83943526     0.36380
C2408       C  0.05550814  0.28965354  0.80143292     0.36380
N2409       N  0.92283501  0.21232147  0.84369268    -0.38440
N2410       N  0.08065714  0.29867333  0.79616835    -0.38440
N2411       N  0.91086608  0.28097859  0.79050670    -0.37880
N2412       N  0.08101720  0.24204761  0.86674645    -0.37890
C2413       C  0.13871539  0.24937380  0.96232991    -0.04550
C2414       C  0.15849890  0.24253822  0.98882035    -0.01670
C2415       C  0.18964509  0.25550782  0.99209421     0.03320
C2416       C  0.20397873  0.27158888  0.96665592    -0.04550
C2417       C  0.18413575  0.27745775  0.93959722    -0.01660
C2418       C  0.15184027  0.26754532  0.93805401     0.03320
C2419       C  0.14495372  0.22585738  0.01495614     0.37970
C2420       C  0.19534416  0.29630061  0.91399466     0.37960
C2421       C  0.13095699  0.28014846  0.91330088     0.36380
C2422       C  0.20388984  0.25582325  0.02363886     0.36380
N2423       N  0.11483535  0.29172235  0.89401657    -0.38440
N2424       N  0.21217949  0.25572565  0.05000770    -0.38440
N2425       N  0.20195074  0.31162952  0.89277412    -0.37880
N2426       N  0.13397463  0.21276953  0.03576843    -0.37890
C2427       C  0.01902645  0.26353480  0.13217806    -0.04550
C2428       C  0.04365647  0.27805853  0.15117923    -0.01670
C2429       C  0.03901889  0.28859873  0.18288173     0.03320
C2430       C  0.01007900  0.28336442  0.19824603    -0.04550
C2431       C  0.98574905  0.26742262  0.17953935    -0.01660
C2432       C  0.99041525  0.25724452  0.14744958     0.03320
C2433       C  0.07519041  0.28054659  0.13870935     0.37970
C2434       C  0.95496739  0.26205634  0.19241622     0.37960
C2435       C  0.96588682  0.23912700  0.13069060     0.36380
C2436       C  0.06533388  0.30430132  0.19932778     0.36380
N2437       N  0.94628982  0.22384663  0.11820665    -0.38440
N2438       N  0.08786854  0.31643582  0.21018752    -0.38440
N2439       N  0.92981992  0.25739351  0.20141492    -0.37880
N2440       N  0.10039260  0.28242439  0.12895224    -0.37890
C2441       C  0.86618701  0.52230882  0.28155880    -0.04550
C2442       C  0.84519783  0.54558359  0.26841433    -0.01670
C2443       C  0.81691981  0.53724859  0.25097275     0.03320
C2444       C  0.80235733  0.50761982  0.25490021    -0.04550
C2445       C  0.82111309  0.48472337  0.27193515    -0.01660
C2446       C  0.85340185  0.49136227  0.28299374     0.03320
C2447       C  0.85166915  0.57892122  0.27400452     0.37970
C2448       C  0.80763899  0.45399487  0.27758073     0.37960
C2449       C  0.87300043  0.46655629  0.29636266     0.36380
C2450       C  0.80300358  0.56010503  0.22941505     0.36380
N2451       N  0.88863134  0.44669270  0.30716820    -0.38440
N2452       N  0.79370490  0.57898173  0.21182943    -0.38440
N2453       N  0.79708625  0.42934164  0.28234555    -0.37880
N2454       N  0.85664107  0.60550077  0.27848548    -0.37890
C2455       C  0.15094038  0.52886633  0.26428285    -0.04550
C2456       C  0.16737029  0.55756431  0.26058224    -0.01670
C2457       C  0.19825818  0.55806297  0.24690692     0.03320
C2458       C  0.21203926  0.53016429  0.23338159    -0.04550
C2459       C  0.19332032  0.50261999  0.23434150    -0.01660
C2460       C  0.16645839  0.50109720  0.25329102     0.03320
C2461       C  0.15285624  0.58643691  0.27139000     0.37970
C2462       C  0.20135320  0.47467445  0.21655806     0.37960
C2463       C  0.15556624  0.46992397  0.26225969     0.36380
C2464       C  0.21459140  0.58796431  0.24610263     0.36380
N2465       N  0.14703014  0.44505660  0.26922317    -0.38440
N2466       N  0.22609741  0.61279284  0.24611570    -0.38440
N2467       N  0.20539666  0.45106485  0.20339517    -0.37880
N2468       N  0.14132130  0.60951707  0.28016973    -0.37890
C2469       C  0.01380254  0.66556751  0.27035484    -0.04550
C2470       C  0.98605397  0.68347525  0.27576056    -0.01670
C2471       C  0.98089929  0.71387973  0.26196242     0.03320
C2472       C  0.00424012  0.72882069  0.24366130    -0.04550
C2473       C  0.03193067  0.71061272  0.23806587    -0.01660
C2474       C  0.03651298  0.67977792  0.25114579     0.03320
C2475       C  0.96153011  0.66949608  0.29425550     0.37970
C2476       C  0.05664539  0.72307950  0.21913501     0.37960
C2477       C  0.06431830  0.66156743  0.24331811     0.36380
C2478       C  0.95034401  0.72887950  0.26524096     0.36380
N2479       N  0.08641125  0.64698526  0.23697230    -0.38440
N2480       N  0.92564551  0.74028038  0.26787386    -0.38440
N2481       N  0.07781580  0.73125188  0.20469959    -0.37880
N2482       N  0.94198020  0.65834054  0.30904483    -0.37890
C2483       C  0.00574045  0.32484455  0.24834804    -0.04550
C2484       C  0.97761505  0.34378508  0.24563205    -0.01670
C2485       C  0.97374457  0.37242190  0.26398824     0.03320
C2486       C  0.99711547  0.38263473  0.28678893    -0.04550
C2487       C  0.02377938  0.36239032  0.29121725    -0.01660
C2488       C  0.02938283  0.33620661  0.27069622     0.03320
C2489       C  0.95145036  0.33323563  0.22529272     0.37970
C2490       C  0.04690630  0.36970173  0.31661017     0.37960
C2491       C  0.06020449  0.32128805  0.27328061     0.36380
C2492       C  0.94658439  0.39255179  0.25803922     0.36380
N2493       N  0.08539912  0.31068689  0.27644079    -0.38440
N2494       N  0.92519506  0.40911400  0.25332946    -0.38440
N2495       N  0.06527391  0.37541181  0.33689030    -0.37880
N2496       N  0.92936244  0.32495941  0.21041061    -0.37890
C2497       C  0.99092905  0.37554220  0.16872483    -0.04550
C2498       C  0.96361490  0.36808278  0.14970248    -0.01670
C2499       C  0.96639778  0.36384068  0.11723767     0.03320
C2500       C  0.99525480  0.37154859  0.10359349    -0.04550
C2501       C  0.02311572  0.37516622  0.12301223    -0.01660
C2502       C  0.02122376  0.37322433  0.15571415     0.03320
C2503       C  0.93207959  0.37245251  0.16148509     0.37970
C2504       C  0.05357728  0.38253505  0.10963973     0.37960
C2505       C  0.05022723  0.37688644  0.17510999     0.36380
C2506       C  0.93965180  0.35179387  0.09831674     0.36380
N2507       N  0.07354704  0.38086038  0.18997143    -0.38440
N2508       N  0.91869335  0.34163737  0.08299458    -0.38440
N2509       N  0.07779366  0.38844801  0.09910921    -0.37880
N2510       N  0.90659576  0.37634671  0.16990332    -0.37890
C2511       C  0.01345382  0.62305314  0.13382829    -0.04550
C2512       C  0.98233367  0.63501660  0.13189426    -0.01670
C2513       C  0.97681294  0.66655262  0.14002889     0.03320
C2514       C  0.00232623  0.68847624  0.14093703    -0.04550
C2515       C  0.03388501  0.67672480  0.13954139    -0.01660
C2516       C  0.03919618  0.64402447  0.13669069     0.03320
C2517       C  0.95578407  0.61358293  0.12558574     0.37970
C2518       C  0.06100025  0.69771644  0.13945088     0.37960
C2519       C  0.07118578  0.63173295  0.13602460     0.36380
C2520       C  0.94423440  0.67723795  0.14260909     0.36380
N2521       N  0.09681451  0.62222973  0.13494725    -0.38440
N2522       N  0.91809397  0.68524568  0.14403849    -0.38440
N2523       N  0.08261801  0.71454735  0.13892932    -0.37880
N2524       N  0.93473882  0.59642640  0.12062253    -0.37890
C2525       C  0.26769675  0.50781115  0.85134582    -0.04550
C2526       C  0.27786114  0.48015465  0.83550207    -0.01670
C2527       C  0.26814489  0.47362888  0.80311798     0.03320
C2528       C  0.24842098  0.49483149  0.78523570    -0.04550
C2529       C  0.23681126  0.52124914  0.80176015    -0.01660
C2530       C  0.24855350  0.52912106  0.83274114     0.03320
C2531       C  0.30090251  0.45989465  0.85112882     0.37970
C2532       C  0.21458607  0.54264392  0.78635823     0.37960
C2533       C  0.24404001  0.56157465  0.84309731     0.36380
C2534       C  0.27773837  0.44432004  0.78845853     0.36380
N2535       N  0.24086915  0.58773394  0.85046605    -0.38440
N2536       N  0.28519745  0.42070403  0.77698356    -0.38440
N2537       N  0.19717486  0.56082844  0.77526923    -0.37880
N2538       N  0.32026821  0.44407154  0.86278139    -0.37890
C2539       C  0.29502441  0.52244839  0.13232647    -0.04550
C2540       C  0.29736959  0.49808193  0.15495807    -0.01670
C2541       C  0.27784642  0.49734974  0.18173962     0.03320
C2542       C  0.26035556  0.52427510  0.19180656    -0.04550
C2543       C  0.25976568  0.54998237  0.16995900    -0.01660
C2544       C  0.27543942  0.54825559  0.14021366     0.03320
C2545       C  0.31900988  0.47210181  0.14950638     0.37970
C2546       C  0.24310319  0.57870081  0.17696159     0.37960
C2547       C  0.26882737  0.57165652  0.11628576     0.36380
C2548       C  0.27500158  0.46742280  0.19743635     0.36380
N2549       N  0.26232747  0.58936908  0.09651975    -0.38440
N2550       N  0.27372898  0.44243304  0.20805070    -0.38440
N2551       N  0.23084457  0.60280745  0.18038720    -0.37880
N2552       N  0.33641285  0.45152397  0.14531888    -0.37890
C2553       C  0.30302772  0.66090633  0.00595124    -0.04550
C2554       C  0.30316690  0.68173831  0.97970241    -0.01670
C2555       C  0.28533259  0.71033046  0.97886661     0.03320
C2556       C  0.26820949  0.72090095  0.00520323    -0.04550
C2557       C  0.26959392  0.70105468  0.03222272    -0.01660
C2558       C  0.28751533  0.67211138  0.03286977     0.03320
C2559       C  0.32142831  0.67315453  0.95252237     0.37970
C2560       C  0.25347531  0.71092207  0.06009603     0.37960
C2561       C  0.29266432  0.65553749  0.06215614     0.36380
C2562       C  0.28370549  0.72806311  0.94978640     0.36380
N2563       N  0.29822156  0.64351273  0.08610135    -0.38440
N2564       N  0.28249950  0.74133708  0.92603315    -0.38440
N2565       N  0.24121151  0.71885269  0.08280888    -0.37880
N2566       N  0.33592261  0.66637798  0.93081671    -0.37890
C2567       C  0.27609666  0.37933197  0.97863203    -0.04550
C2568       C  0.27765802  0.36358610  0.94926126    -0.01670
C2569       C  0.26623827  0.33175798  0.94512136     0.03320
C2570       C  0.24957174  0.31612530  0.96942290    -0.04550
C2571       C  0.24630652  0.33364201  0.99775350    -0.01660
C2572       C  0.26407247  0.36156657  0.00375032     0.03320
C2573       C  0.29082853  0.38018824  0.92320911     0.37970
C2574       C  0.22198991  0.32619831  0.01961340     0.37960
C2575       C  0.26859096  0.37288261  0.03612725     0.36380
C2576       C  0.26899164  0.31706153  0.91445979     0.36380
N2577       N  0.27230027  0.38173882  0.06195288    -0.38440
N2578       N  0.27113086  0.30699546  0.88913208    -0.38440
N2579       N  0.20210901  0.32313207  0.03743529    -0.37880
N2580       N  0.30159820  0.39314400  0.90226230    -0.37890
C2581       C  0.12447240  0.50492697  0.15076287    -0.04550
C2582       C  0.13073456  0.53735631  0.15548871    -0.01670
C2583       C  0.15989371  0.54954966  0.14654375     0.03320
C2584       C  0.18302370  0.52862570  0.13557174    -0.04550
C2585       C  0.17942415  0.49572941  0.14053394    -0.01660
C2586       C  0.14929935  0.48384226  0.14549495     0.03320
C2587       C  0.10812240  0.55735962  0.17112304     0.37970
C2588       C  0.20535682  0.47345132  0.13787032     0.37960
C2589       C  0.14377878  0.44989109  0.14507783     0.36380
C2590       C  0.16518618  0.58333077  0.14641152     0.36380
N2591       N  0.13938466  0.42291720  0.14480580    -0.38440
N2592       N  0.16912177  0.61035618  0.14603376    -0.38440
N2593       N  0.22512119  0.45468505  0.13606193    -0.37880
N2594       N  0.09022786  0.57267664  0.18452330    -0.37890
C2595       C  0.12462210  0.43368954  0.98289863    -0.04550
C2596       C  0.09226110  0.43905029  0.98786049    -0.01670
C2597       C  0.06912105  0.42410723  0.96849484     0.03320
C2598       C  0.07832051  0.40147736  0.94573546    -0.04550
C2599       C  0.11077966  0.39749120  0.93974844    -0.01660
C2600       C  0.13402671  0.41256057  0.95916051     0.03320
C2601       C  0.08273821  0.45831494  0.01454109     0.37970
C2602       C  0.12025201  0.37644163  0.91460925     0.37960
C2603       C  0.16727845  0.40509079  0.95543490     0.36380
C2604       C  0.03598041  0.43057303  0.97412573     0.36380
N2605       N  0.19360825  0.39843065  0.95236506    -0.38440
N2606       N  0.00970630  0.43596905  0.97904685    -0.38440
N2607       N  0.12838743  0.36018118  0.89437969    -0.37880
N2608       N  0.07525609  0.47339539  0.03593862    -0.37890
C2609       C  0.18714342  0.66560475  0.02895279    -0.04550
C2610       C  0.18106394  0.66952766  0.06124373    -0.01670
C2611       C  0.15021235  0.67554932  0.07017180     0.03320
C2612       C  0.12559867  0.67799731  0.04689282    -0.04550
C2613       C  0.13250074  0.67874852  0.01460114    -0.01660
C2614       C  0.16342614  0.67251465  0.00550853     0.03320
C2615       C  0.20461890  0.66011367  0.08539098     0.37970
C2616       C  0.10796151  0.68590981  0.99068542     0.37960
C2617       C  0.16878204  0.66696349  0.97222924     0.36380
C2618       C  0.14396878  0.67823567  0.10356623     0.36380
N2619       N  0.17229119  0.66176663  0.94570855    -0.38440
N2620       N  0.14034556  0.68031303  0.13043415    -0.38440
N2621       N  0.08861101  0.69172528  0.97150846    -0.37880
N2622       N  0.22295410  0.65227858  0.10477218    -0.37890
C2623       C  0.14735789  0.49668201  0.69909030    -0.04550
C2624       C  0.17143909  0.51952420  0.69430352    -0.01670
C2625       C  0.20096114  0.51963968  0.71206788     0.03320
C2626       C  0.21023504  0.49423310  0.73219759    -0.04550
C2627       C  0.18722869  0.46979167  0.73506109    -0.01660
C2628       C  0.15625214  0.47118447  0.71921164     0.03320
C2629       C  0.16471840  0.54499470  0.67236987     0.37970
C2630       C  0.19488719  0.44354376  0.75552673     0.37960
C2631       C  0.13238861  0.44835185  0.72704846     0.36380
C2632       C  0.21985070  0.54824148  0.71209895     0.36380
N2633       N  0.11349856  0.43048245  0.73474508    -0.38440
N2634       N  0.23366338  0.57187961  0.71220471    -0.38440
N2635       N  0.20095751  0.42242138  0.77174571    -0.37880
N2636       N  0.15945640  0.56530825  0.65489710    -0.37890
C2637       C  0.99591611  0.38390936  0.70555032    -0.04550
C2638       C  0.96820694  0.36566882  0.71044768    -0.01670
C2639       C  0.96807922  0.33986392  0.73181342     0.03320
C2640       C  0.99645609  0.32439077  0.74247699    -0.04550
C2641       C  0.02501123  0.33886575  0.73126409    -0.01660
C2642       C  0.02468812  0.36893521  0.71484275     0.03320
C2643       C  0.93896536  0.37322110  0.69274743     0.37970
C2644       C  0.05477116  0.32218611  0.73317671     0.37960
C2645       C  0.05358932  0.38213920  0.70335985     0.36380
C2646       C  0.93739253  0.33078704  0.74253307     0.36380
N2647       N  0.07639659  0.39201593  0.69274830    -0.38440
N2648       N  0.91123885  0.32746839  0.74909734    -0.38440
N2649       N  0.07927099  0.31000012  0.73232439    -0.37880
N2650       N  0.91563769  0.37928915  0.67883948    -0.37890
C2651       C  0.02932940  0.73035140  0.74979269    -0.04550
C2652       C  0.99973105  0.71660915  0.73922216    -0.01670
C2653       C  0.99722472  0.68380840  0.73058290     0.03320
C2654       C  0.02431194  0.66409014  0.73129671    -0.04550
C2655       C  0.05406950  0.67853989  0.73981055    -0.01660
C2656       C  0.05612835  0.71027947  0.75092003     0.03320
C2657       C  0.97096039  0.73494929  0.74137294     0.37970
C2658       C  0.08324696  0.66072728  0.73712338     0.37960
C2659       C  0.08555208  0.72133981  0.76612651     0.36380
C2660       C  0.96635664  0.66992176  0.72323451     0.36380
N2661       N  0.10891894  0.72982511  0.77876548    -0.38440
N2662       N  0.94164727  0.65883961  0.71752854    -0.38440
N2663       N  0.10653803  0.64661179  0.73480310    -0.37880
N2664       N  0.94753952  0.74887476  0.74347535    -0.37890
C2665       C  0.87676539  0.56573512  0.74676980    -0.04550
C2666       C  0.85346742  0.57986418  0.72656387    -0.01670
C2667       C  0.82253504  0.58788134  0.73804870     0.03320
C2668       C  0.81101596  0.57469407  0.76670208    -0.04550
C2669       C  0.83558888  0.56309035  0.78726721    -0.01660
C2670       C  0.86794734  0.56275153  0.77861372     0.03320
C2671       C  0.86119749  0.58677433  0.69443580     0.37970
C2672       C  0.82808636  0.54886515  0.81655801     0.37960
C2673       C  0.89289538  0.56170788  0.80294473     0.36380
C2674       C  0.80522860  0.61324549  0.72286074     0.36380
N2675       N  0.91373984  0.56227234  0.82145241    -0.38440
N2676       N  0.79285330  0.63468575  0.71105911    -0.38440
N2677       N  0.82180013  0.53645456  0.83955188    -0.37880
N2678       N  0.86726836  0.59223706  0.66864370    -0.37890
C2679       C  0.14948792  0.50468723  0.82582172    -0.04550
C2680       C  0.14138868  0.53718248  0.83139219    -0.01670
C2681       C  0.13911258  0.54841265  0.86211222     0.03320
C2682       C  0.14886551  0.52934598  0.88726943    -0.04550
C2683       C  0.16105702  0.49879258  0.88203254    -0.01660
C2684       C  0.16081893  0.48626103  0.85130914     0.03320
C2685       C  0.13509933  0.56011347  0.80661237     0.37970
C2686       C  0.17631379  0.48148855  0.90777943     0.37960
C2687       C  0.17105964  0.45400954  0.84594291     0.36380
C2688       C  0.12986530  0.58113464  0.86798450     0.36380
N2689       N  0.17910345  0.42823991  0.84184916    -0.38440
N2690       N  0.12301836  0.60713576  0.87279451    -0.38440
N2691       N  0.18920617  0.46825656  0.92826160    -0.37880
N2692       N  0.12987427  0.57905287  0.78759900    -0.37890
C2693       C  0.99663822  0.37108621  0.80866520    -0.04550
C2694       C  0.96255614  0.36886994  0.80780203    -0.01670
C2695       C  0.94755387  0.34959306  0.82905795     0.03320
C2696       C  0.96558791  0.33606659  0.85334504    -0.04550
C2697       C  0.99903958  0.33638062  0.85378725    -0.01660
C2698       C  0.01467891  0.35333201  0.83090868     0.03320
C2699       C  0.94162722  0.38961553  0.78955097     0.37970
C2700       C  0.01729001  0.32123980  0.87918957     0.37960
C2701       C  0.04912795  0.35518507  0.83277494     0.36380
C2702       C  0.91303322  0.34714007  0.82883979     0.36380
N2703       N  0.07654161  0.35708032  0.83473787    -0.38440
N2704       N  0.88564912  0.34511113  0.82879864    -0.38440
N2705       N  0.03197310  0.30908328  0.89924065    -0.37880
N2706       N  0.92372132  0.40596321  0.77637017    -0.37890
C2707       C  0.04251418  0.59882145  0.87707388    -0.04550
C2708       C  0.01970055  0.62192922  0.86931618    -0.01670
C2709       C  0.00877027  0.64179699  0.89304724     0.03320
C2710       C  0.02219918  0.63983741  0.92428761    -0.04550
C2711       C  0.04411268  0.61555829  0.93202534    -0.01660
C2712       C  0.05285829  0.59414161  0.90861408     0.03320
C2713       C  0.00463656  0.62274925  0.83782427     0.37970
C2714       C  0.05860119  0.61233352  0.96345117     0.37960
C2715       C  0.07097709  0.56623762  0.91735688     0.36380
C2716       C  0.98276390  0.66317354  0.88506888     0.36380
N2717       N  0.08437809  0.54349079  0.92461347    -0.38440
N2718       N  0.96208937  0.68009737  0.87844104    -0.38440
N2719       N  0.07063813  0.60898897  0.98822242    -0.37880
N2720       N  0.99242253  0.62295223  0.81287365    -0.37890
C2721       C  0.74120880  0.38467381  0.00609166    -0.04550
C2722       C  0.75552172  0.36539523  0.98257528    -0.01670
C2723       C  0.76721647  0.33407938  0.98874354     0.03320
C2724       C  0.76235161  0.31822486  0.01762004    -0.04550
C2725       C  0.74608752  0.33657360  0.04060058    -0.01660
C2726       C  0.73625436  0.36905845  0.03519663     0.03320
C2727       C  0.75595592  0.37638179  0.95022212     0.37970
C2728       C  0.73915102  0.32198706  0.07027818     0.37960
C2729       C  0.71976022  0.38580461  0.05949656     0.36380
C2730       C  0.78193068  0.31759624  0.96319449     0.36380
N2731       N  0.70616236  0.39873551  0.07899709    -0.38440
N2732       N  0.79222481  0.30619252  0.94090465    -0.38440
N2733       N  0.73337231  0.31045720  0.09403238    -0.37880
N2734       N  0.75596592  0.38445224  0.92419748    -0.37890
C2735       C  0.74336525  0.66410441  0.01600474    -0.04550
C2736       C  0.75608599  0.68419137  0.04030538    -0.01670
C2737       C  0.77219220  0.71268873  0.03369616     0.03320
C2738       C  0.77042892  0.72618059  0.00312629    -0.04550
C2739       C  0.75437415  0.70733236  0.97885956    -0.01660
C2740       C  0.74160740  0.67659387  0.98525195     0.03320
C2741       C  0.74912024  0.67749642  0.07299384     0.37970
C2742       C  0.74848849  0.71984090  0.94755455     0.37960
C2743       C  0.72327951  0.65952477  0.96105033     0.36380
C2744       C  0.78650126  0.72933376  0.06052112     0.36380
N2745       N  0.70770434  0.64644737  0.94197973    -0.38440
N2746       N  0.79595192  0.73968413  0.08443194    -0.38440
N2747       N  0.74249516  0.72888118  0.92232978    -0.37880
N2748       N  0.74336244  0.67240713  0.09895334    -0.37890
C2749       C  0.72212148  0.49924511  0.14747694    -0.04550
C2750       C  0.74297409  0.47546064  0.15943804    -0.01670
C2751       C  0.75785560  0.47734823  0.19052013     0.03320
C2752       C  0.75308372  0.50348615  0.21120912    -0.04550
C2753       C  0.73199305  0.52732865  0.19907643    -0.01660
C2754       C  0.71583884  0.52435324  0.16872018     0.03320
C2755       C  0.75134143  0.44992575  0.13831991     0.37970
C2756       C  0.72804902  0.55650173  0.21654819     0.37960
C2757       C  0.69442466  0.54907674  0.15787987     0.36380
C2758       C  0.77785285  0.45160671  0.20103122     0.36380
N2759       N  0.67728782  0.56877663  0.14929343    -0.38440
N2760       N  0.79290747  0.43007650  0.20880361    -0.38440
N2761       N  0.72455067  0.58043931  0.22935315    -0.37880
N2762       N  0.75825213  0.42970661  0.12137353    -0.37890
C2763       C  0.73113840  0.56797479  0.87058396    -0.04550
C2764       C  0.74911717  0.59476075  0.86129276    -0.01670
C2765       C  0.76262635  0.59657837  0.83033306     0.03320
C2766       C  0.76253892  0.57014521  0.80921854    -0.04550
C2767       C  0.74842103  0.54226943  0.82092606    -0.01660
C2768       C  0.72964650  0.54262371  0.84822819     0.03320
C2769       C  0.75641251  0.61937391  0.88427043     0.37970
C2770       C  0.75671922  0.51177037  0.80803307     0.37960
C2771       C  0.71239035  0.51420384  0.85623219     0.36380
C2772       C  0.77861765  0.62504091  0.82106522     0.36380
N2773       N  0.69912332  0.49177385  0.86389376    -0.38440
N2774       N  0.79149652  0.64774552  0.81354992    -0.38440
N2775       N  0.76304440  0.48648055  0.79990367    -0.37880
N2776       N  0.76334244  0.63921503  0.90220904    -0.37890
C2777       C  0.87112295  0.53808650  0.89441004    -0.04550
C2778       C  0.89980172  0.55524648  0.89471016    -0.01670
C2779       C  0.92777758  0.54013412  0.88651847     0.03320
C2780       C  0.92637479  0.50943827  0.87375494    -0.04550
C2781       C  0.89822929  0.49183598  0.87379824    -0.01660
C2782       C  0.87068612  0.50564367  0.88476630     0.03320
C2783       C  0.90061467  0.58832122  0.90432524     0.37970
C2784       C  0.89794756  0.45915652  0.86271572     0.37960
C2785       C  0.84272349  0.48563739  0.88602640     0.36380
C2786       C  0.95777551  0.55624146  0.89124449     0.36380
N2787       N  0.82068897  0.46930001  0.88629933    -0.38440
N2788       N  0.98174222  0.56885814  0.89629632    -0.38440
N2789       N  0.89791028  0.43324310  0.85379250    -0.37880
N2790       N  0.90118902  0.61465786  0.91186964    -0.37890
C2791       C  0.85230769  0.47604617  0.12423803    -0.04550
C2792       C  0.85000928  0.45058847  0.14517556    -0.01670
C2793       C  0.85990568  0.45536988  0.17687119     0.03320
C2794       C  0.86932117  0.48569594  0.18682633    -0.04550
C2795       C  0.85969600  0.51161907  0.16863083    -0.01660
C2796       C  0.85896791  0.50684208  0.13627317     0.03320
C2797       C  0.83771908  0.42028599  0.13444857     0.37970
C2798       C  0.86089684  0.54364116  0.18130441     0.37960
C2799       C  0.86409646  0.53364383  0.11581564     0.36380
C2800       C  0.86280232  0.42951440  0.19873945     0.36380
N2801       N  0.86850436  0.55520776  0.10000593    -0.38440
N2802       N  0.86438014  0.40888957  0.21640647    -0.38440
N2803       N  0.86267873  0.56944505  0.19044615    -0.37880
N2804       N  0.82739300  0.39610621  0.12630717    -0.37890
C2805       C  0.84343915  0.39784017  0.97812811    -0.04550
C2806       C  0.84806315  0.37519221  0.95462963    -0.01670
C2807       C  0.85126805  0.34394750  0.96352905     0.03320
C2808       C  0.85306261  0.33704922  0.99646027    -0.04550
C2809       C  0.84167608  0.35886162  0.01852419    -0.01660
C2810       C  0.83445973  0.38904303  0.00840431     0.03320
C2811       C  0.85101144  0.38424835  0.92181989     0.37970
C2812       C  0.84641256  0.35425919  0.05216459     0.37960
C2813       C  0.81830878  0.41073337  0.02909586     0.36380
C2814       C  0.85906481  0.32097082  0.93924785     0.36380
N2815       N  0.80437315  0.42730433  0.04540452    -0.38440
N2816       N  0.86523477  0.30303063  0.91962587    -0.38440
N2817       N  0.85136298  0.35245448  0.07911085    -0.37880
N2818       N  0.85315413  0.39141863  0.89570395    -0.37890
C2819       C  0.85099780  0.64985352  0.03003389    -0.04550
C2820       C  0.85196537  0.67047417  0.05646793    -0.01670
C2821       C  0.85927150  0.70219927  0.05196386     0.03320
C2822       C  0.86892013  0.71125792  0.02208449    -0.04550
C2823       C  0.85893536  0.69335499  0.99508745    -0.01660
C2824       C  0.84941143  0.66217870  0.99932749     0.03320
C2825       C  0.84846449  0.65880305  0.08827053     0.37970
C2826       C  0.86560849  0.70347979  0.96340326     0.37960
C2827       C  0.83914047  0.64284585  0.97230198     0.36380
C2828       C  0.86416896  0.72329820  0.07889324     0.36380
N2829       N  0.83071723  0.62765146  0.95069587    -0.38440
N2830       N  0.86755620  0.73976759  0.10071688    -0.38440
N2831       N  0.87194335  0.71074347  0.93813753    -0.37880
N2832       N  0.84567429  0.64950205  0.11360939    -0.37890
C2833       C  0.23762011  0.50136260  0.63074548    -0.04550
C2834       C  0.25504885  0.52546390  0.64827424    -0.01670
C2835       C  0.27266380  0.51889176  0.67655640     0.03320
C2836       C  0.26607869  0.49173146  0.69389290    -0.04550
C2837       C  0.24805223  0.46748458  0.67752534    -0.01660
C2838       C  0.23489923  0.47191026  0.64593502     0.03320
C2839       C  0.25258866  0.55854730  0.63959846     0.37970
C2840       C  0.24399155  0.43746255  0.69281238     0.37960
C2841       C  0.21762098  0.44662499  0.62979961     0.36380
C2842       C  0.29579911  0.54180104  0.68872706     0.36380
N2843       N  0.20360925  0.42636834  0.61708268    -0.38440
N2844       N  0.31447218  0.56028631  0.69749827    -0.38440
N2845       N  0.24097790  0.41326741  0.70477238    -0.37880
N2846       N  0.25058000  0.58494093  0.63303189    -0.37890
C2847       C  0.22014798  0.51461840  0.34667682    -0.04550
C2848       C  0.23558040  0.54248770  0.33699985    -0.01670
C2849       C  0.25136508  0.54414511  0.30715494     0.03320
C2850       C  0.25451643  0.51731323  0.28653632    -0.04550
C2851       C  0.23806302  0.48976467  0.29630195    -0.01660
C2852       C  0.22025129  0.48910054  0.32453190     0.03320
C2853       C  0.23648318  0.56918753  0.35850010     0.37970
C2854       C  0.23906882  0.46089412  0.27797323     0.37960
C2855       C  0.20198071  0.46100520  0.33131883     0.36380
C2856       C  0.26480198  0.57391077  0.29819211     0.36380
N2857       N  0.18745500  0.43865356  0.33682611    -0.38440
N2858       N  0.27541413  0.59818479  0.29205025    -0.38440
N2859       N  0.23867873  0.43662412  0.26518026    -0.37880
N2860       N  0.23758094  0.59027909  0.37605740    -0.37890
C2861       C  0.22990161  0.65619778  0.47484371    -0.04550
C2862       C  0.24377298  0.67449328  0.50067681    -0.01670
C2863       C  0.26587651  0.69962907  0.49616254     0.03320
C2864       C  0.26673809  0.71605640  0.46728647    -0.04550
C2865       C  0.24904105  0.70074850  0.44154433    -0.01660
C2866       C  0.23272215  0.67060759  0.44489248     0.03320
C2867       C  0.23517143  0.66854714  0.53310133     0.37970
C2868       C  0.24695455  0.71618934  0.41127496     0.37960
C2869       C  0.21571559  0.65654274  0.41804049     0.36380
C2870       C  0.28563783  0.70944584  0.52311288     0.36380
N2871       N  0.20148772  0.64592773  0.39655294    -0.38440
N2872       N  0.30043814  0.71452893  0.54617176    -0.38440
N2873       N  0.24472750  0.72806019  0.38681934    -0.37880
N2874       N  0.22896613  0.66398865  0.55905550    -0.37890
C2875       C  0.22263877  0.37324120  0.50245681    -0.04550
C2876       C  0.21621991  0.35373759  0.47559354    -0.01670
C2877       C  0.23013225  0.32313090  0.47246045     0.03320
C2878       C  0.24887452  0.30922179  0.49742498    -0.04550
C2879       C  0.25414578  0.32853425  0.52497752    -0.01660
C2880       C  0.24180982  0.35998550  0.52707741     0.03320
C2881       C  0.19703389  0.36654157  0.44959579     0.37970
C2882       C  0.27175050  0.31664605  0.55216387     0.37960
C2883       C  0.25058946  0.37978464  0.55420741     0.36380
C2884       C  0.22693075  0.30752463  0.44199092     0.36380
N2885       N  0.25784731  0.39558770  0.57575043    -0.38440
N2886       N  0.22426794  0.29668594  0.41683526    -0.38440
N2887       N  0.28452388  0.30896171  0.57546756    -0.37880
N2888       N  0.18174671  0.37678425  0.42887713    -0.37890
C2889       C  0.52320249  0.67042953  0.77810445    -0.04550
C2890       C  0.55114946  0.67872592  0.76236256    -0.01670
C2891       C  0.55588670  0.70991531  0.74984981     0.03320
C2892       C  0.53233251  0.73400382  0.75186232    -0.04550
C2893       C  0.50440186  0.72535211  0.76805913    -0.01660
C2894       C  0.50050167  0.69470210  0.78146769     0.03320
C2895       C  0.57301703  0.65365396  0.75525592     0.37970
C2896       C  0.47765084  0.74662000  0.76899630     0.37960
C2897       C  0.47155417  0.68731167  0.79738150     0.36380
C2898       C  0.58412888  0.71610408  0.73256068     0.36380
N2899       N  0.44847696  0.68142695  0.81007039    -0.38440
N2900       N  0.60681498  0.72039338  0.71866508    -0.38440
N2901       N  0.45515409  0.76209714  0.77032823    -0.37880
N2902       N  0.58949629  0.63283956  0.74928734    -0.37890
C2903       C  0.65509009  0.55289785  0.79121332    -0.04550
C2904       C  0.66733087  0.58364888  0.78616704    -0.01670
C2905       C  0.69800492  0.58828958  0.77227317     0.03320
C2906       C  0.71574545  0.56257420  0.75940684    -0.04550
C2907       C  0.70212944  0.53249059  0.76277314    -0.01660
C2908       C  0.67631520  0.52773115  0.78304278     0.03320
C2909       C  0.64984623  0.61043266  0.79763617     0.37970
C2910       C  0.71595133  0.50557176  0.74702800     0.37960
C2911       C  0.67217054  0.49594102  0.79495575     0.36380
C2912       C  0.71103157  0.61980158  0.77080373     0.36380
N2913       N  0.66878322  0.47032399  0.80348273    -0.38440
N2914       N  0.72128944  0.64509718  0.76961546    -0.38440
N2915       N  0.72673293  0.48385812  0.73461995    -0.37880
N2916       N  0.63618115  0.63195378  0.80718569    -0.37890
C2917       C  0.37156102  0.50765689  0.77126979    -0.04550
C2918       C  0.34646144  0.52850678  0.77834668    -0.01670
C2919       C  0.31486891  0.52457124  0.76467734     0.03320
C2920       C  0.30599107  0.49783759  0.74523601    -0.04550
C2921       C  0.33110472  0.47652732  0.73884864    -0.01660
C2922       C  0.36313455  0.48184701  0.75086123     0.03320
C2923       C  0.35385395  0.55587921  0.79814020     0.37970
C2924       C  0.32438131  0.44925718  0.71881475     0.37960
C2925       C  0.38831499  0.46198010  0.73993982     0.36380
C2926       C  0.29325922  0.55084283  0.76735550     0.36380
N2927       N  0.40869940  0.44659747  0.73084494    -0.38440
N2928       N  0.27743706  0.57297846  0.76955040    -0.38440
N2929       N  0.31922792  0.42734013  0.70289342    -0.37880
N2930       N  0.35971262  0.57769233  0.81399543    -0.37890
C2931       C  0.50132579  0.39011981  0.78572951    -0.04550
C2932       C  0.47292893  0.37821397  0.77127747    -0.01670
C2933       C  0.47325139  0.35025862  0.75168954     0.03320
C2934       C  0.50185961  0.33317932  0.74703345    -0.04550
C2935       C  0.53006393  0.34577246  0.76123308    -0.01660
C2936       C  0.52916855  0.37131137  0.78271397     0.03320
C2937       C  0.44331396  0.39334285  0.77830231     0.37970
C2938       C  0.56058580  0.33142580  0.75562647     0.37960
C2939       C  0.55810798  0.37879330  0.80131735     0.36380
C2940       C  0.44422721  0.33947808  0.73572099     0.36380
N2941       N  0.58127029  0.38527791  0.81550279    -0.38440
N2942       N  0.42097116  0.33111156  0.72280010    -0.38440
N2943       N  0.58554631  0.32103879  0.75176147    -0.37880
N2944       N  0.41953519  0.40481521  0.78485314    -0.37890
C2945       C  0.41964552  0.49684394  0.63563907    -0.04550
C2946       C  0.39020665  0.48115788  0.63529024    -0.01670
C2947       C  0.36449030  0.49359295  0.61769152     0.03320
C2948       C  0.36883215  0.52139851  0.60058385    -0.04550
C2949       C  0.39813131  0.53706500  0.60076069    -0.01660
C2950       C  0.42375146  0.52458337  0.61785658     0.03320
C2951       C  0.38632318  0.45254389  0.65310682     0.37970
C2952       C  0.40174163  0.56642385  0.58362426     0.37960
C2953       C  0.45339317  0.54218828  0.61935392     0.36380
C2954       C  0.33394447  0.47761232  0.61659889     0.36380
N2955       N  0.47664188  0.55674204  0.62081356    -0.38440
N2956       N  0.30960772  0.46486999  0.61568955    -0.38440
N2957       N  0.40472426  0.58973957  0.57004753    -0.37880
N2958       N  0.38271663  0.42946257  0.66684522    -0.37890
C2959       C  0.80581638  0.66433513  0.53638068    -0.04550
C2960       C  0.78665579  0.67461490  0.56111975    -0.01670
C2961       C  0.77086081  0.70487117  0.55999844     0.03320
C2962       C  0.77211095  0.72502626  0.53304198    -0.04550
C2963       C  0.79257631  0.71457911  0.50904145    -0.01660
C2964       C  0.81139810  0.68692312  0.51256552     0.03320
C2965       C  0.78622144  0.65576941  0.58928832     0.37970
C2966       C  0.79433236  0.73135550  0.47955054     0.37960
C2967       C  0.83671967  0.68147058  0.49078738     0.36380
C2968       C  0.75565582  0.71580939  0.58800105     0.36380
N2969       N  0.85694131  0.67733021  0.47349888    -0.38440
N2970       N  0.74502430  0.72376469  0.61156570    -0.38440
N2971       N  0.79666232  0.74351701  0.45540193    -0.37880
N2972       N  0.78704241  0.64151285  0.61243399    -0.37890
C2973       C  0.78076067  0.54108217  0.65114596    -0.04550
C2974       C  0.79255992  0.52405291  0.67759440    -0.01670
C2975       C  0.78290855  0.53107708  0.70905861     0.03320
C2976       C  0.76110414  0.55610560  0.71562014    -0.04550
C2977       C  0.75012234  0.57370698  0.68888079    -0.01660
C2978       C  0.75919742  0.56591443  0.65741118     0.03320
C2979       C  0.81421103  0.49816655  0.67218017     0.37970
C2980       C  0.73206959  0.60220528  0.69365884     0.37960
C2981       C  0.74554897  0.58329255  0.63095648     0.36380
C2982       C  0.79627493  0.51202057  0.73437666     0.36380
N2983       N  0.73460299  0.59702668  0.60974558    -0.38440
N2984       N  0.80842701  0.49641184  0.75352237    -0.38440
N2985       N  0.71908439  0.62601594  0.69662988    -0.37880
N2986       N  0.83153257  0.47754632  0.66786394    -0.37890
C2987       C  0.75208988  0.38810285  0.50564017    -0.04550
C2988       C  0.76994011  0.36683748  0.48748811    -0.01670
C2989       C  0.75991853  0.33436855  0.48390624     0.03320
C2990       C  0.73985014  0.31977134  0.50635858    -0.04550
C2991       C  0.72378918  0.34147753  0.52573413    -0.01660
C2992       C  0.72503567  0.37407250  0.51956406     0.03320
C2993       C  0.79486497  0.37899682  0.46845811     0.37970
C2994       C  0.70251240  0.33181501  0.54989047     0.37960
C2995       C  0.69414261  0.38918145  0.51817294     0.36380
C2996       C  0.76138532  0.32100254  0.45255107     0.36380
N2997       N  0.66900938  0.40019460  0.51677678    -0.38440
N2998       N  0.76145054  0.31246135  0.42651178    -0.38440
N2999       N  0.68489513  0.32651013  0.56946424    -0.37880
N3000       N  0.81485046  0.38860466  0.45319709    -0.37890
C3001       C  0.78283729  0.51060067  0.37136660    -0.04550
C3002       C  0.76492078  0.48385437  0.36096765    -0.01670
C3003       C  0.75214857  0.48127786  0.32895572     0.03320
C3004       C  0.75641226  0.50568979  0.30642680    -0.04550
C3005       C  0.77320519  0.53290661  0.31771134    -0.01660
C3006       C  0.78807604  0.53417956  0.34843260     0.03320
C3007       C  0.75889786  0.45922624  0.38340465     0.37970
C3008       C  0.77232711  0.56165109  0.29951186     0.37960
C3009       C  0.80891303  0.56066288  0.35650461     0.36380
C3010       C  0.73346152  0.45375828  0.31994484     0.36380
N3011       N  0.82558215  0.58174513  0.36274816    -0.38440
N3012       N  0.71836831  0.43155048  0.31373121    -0.38440
N3013       N  0.77137071  0.58551163  0.28646436    -0.37880
N3014       N  0.75410179  0.43949497  0.40131300    -0.37890
C3015       C  0.65988302  0.54379483  0.69262711    -0.04550
C3016       C  0.66581231  0.51989549  0.67069246    -0.01670
C3017       C  0.65551082  0.52585432  0.63978282     0.03320
C3018       C  0.65678684  0.55728464  0.62879190    -0.04550
C3019       C  0.65972236  0.58241386  0.65043900    -0.01660
C3020       C  0.66017633  0.57565364  0.68284088     0.03320
C3021       C  0.67095372  0.48758379  0.68074541     0.37970
C3022       C  0.66121285  0.61464743  0.63944789     0.37960
C3023       C  0.65432299  0.60082409  0.70515942     0.36380
C3024       C  0.64643675  0.49980921  0.61855343     0.36380
N3025       N  0.64973841  0.62178324  0.72205401    -0.38440
N3026       N  0.63925965  0.47912152  0.60167561    -0.38440
N3027       N  0.66235811  0.64035339  0.63058573    -0.37880
N3028       N  0.67454808  0.46161970  0.68828476    -0.37890
C3029       C  0.65906399  0.79245241  0.51119767    -0.04550
C3030       C  0.67275525  0.79544318  0.54201840    -0.01670
C3031       C  0.70381179  0.78294782  0.54991290     0.03320
C3032       C  0.72165896  0.76564226  0.52739813    -0.04550
C3033       C  0.70679277  0.76158700  0.49708356    -0.01660
C3034       C  0.67821144  0.77760727  0.48839362     0.03320
C3035       C  0.65539364  0.81266978  0.56520794     0.37970
C3036       C  0.72072953  0.74152226  0.47362935     0.37960
C3037       C  0.66930256  0.78004268  0.45498665     0.36380
C3038       C  0.71666751  0.78723761  0.58178424     0.36380
N3039       N  0.66238387  0.78200094  0.42836721    -0.38440
N3040       N  0.72608541  0.79103662  0.60756876    -0.38440
N3041       N  0.73007431  0.72593455  0.45346185    -0.37880
N3042       N  0.64158165  0.82718578  0.58335185    -0.37890
C3043       C  0.53167039  0.80487525  0.63945431    -0.04550
C3044       C  0.56063852  0.80660517  0.65765239    -0.01670
C3045       C  0.56391971  0.79252739  0.68876362     0.03320
C3046       C  0.53864249  0.77521452  0.70255973    -0.04550
C3047       C  0.51082048  0.77185148  0.68324812    -0.01660
C3048       C  0.50598415  0.79000661  0.65534640     0.03320
C3049       C  0.58629566  0.82508671  0.64589962     0.37970
C3050       C  0.48538023  0.75138872  0.69274560     0.37960
C3051       C  0.47306738  0.79578497  0.64546152     0.36380
C3052       C  0.59436868  0.79402281  0.70562474     0.36380
N3053       N  0.44680244  0.80046815  0.63799081    -0.38440
N3054       N  0.61905305  0.79490130  0.71855126    -0.38440
N3055       N  0.46427225  0.73535326  0.69886701    -0.37880
N3056       N  0.60677446  0.84072213  0.63752320    -0.37890
C3057       C  0.37308318  0.80287980  0.47506212    -0.04550
C3058       C  0.35045678  0.80326865  0.49941659    -0.01670
C3059       C  0.32217454  0.78392108  0.49849419     0.03320
C3060       C  0.31077742  0.76707298  0.47076354    -0.04550
C3061       C  0.33177138  0.76940934  0.44491752    -0.01660
C3062       C  0.36252117  0.78565449  0.44753371     0.03320
C3063       C  0.35593789  0.82431657  0.52639513     0.37970
C3064       C  0.32230976  0.75437737  0.41525214     0.37960
C3065       C  0.38352829  0.78439568  0.42166317     0.36380
C3066       C  0.30633607  0.78081753  0.52790461     0.36380
N3067       N  0.40054590  0.78300317  0.40100651    -0.38440
N3068       N  0.29601086  0.77953968  0.55278700    -0.38440
N3069       N  0.31569159  0.74224848  0.39128612    -0.37880
N3070       N  0.36009256  0.84110454  0.54789905    -0.37890
C3071       C  0.52378737  0.80408004  0.35028901    -0.04550
C3072       C  0.49636605  0.78914676  0.33667110    -0.01670
C3073       C  0.49786641  0.76784104  0.30982931     0.03320
C3074       C  0.52701405  0.76030044  0.29525496    -0.04550
C3075       C  0.55448179  0.77436878  0.30959481    -0.01660
C3076       C  0.55263812  0.79743759  0.33456620     0.03320
C3077       C  0.46615098  0.79771418  0.34891462     0.37970
C3078       C  0.58516439  0.76434636  0.29900915     0.37960
C3079       C  0.58138843  0.81383538  0.34524522     0.36380
C3080       C  0.46898433  0.75368787  0.29695553     0.36380
N3081       N  0.60426491  0.82706493  0.35370643    -0.38440
N3082       N  0.44560457  0.74275205  0.28668676    -0.38440
N3083       N  0.60965605  0.75604038  0.29073206    -0.37880
N3084       N  0.44193999  0.80586142  0.35788529    -0.37890
C3085       C  0.32966224  0.65687825  0.48577963    -0.04550
C3086       C  0.34350850  0.66409833  0.51589914    -0.01670
C3087       C  0.36167444  0.69116710  0.51941069     0.03320
C3088       C  0.36992221  0.70711751  0.49195142    -0.04550
C3089       C  0.35822938  0.69785576  0.46176217    -0.01660
C3090       C  0.33518164  0.67493414  0.45929668     0.03320
C3091       C  0.34056573  0.64336276  0.54286013     0.37970
C3092       C  0.37392138  0.70681034  0.43331857     0.37960
C3093       C  0.31825818  0.66930811  0.42939967     0.36380
C3094       C  0.37517600  0.69966975  0.55054338     0.36380
N3095       N  0.30417931  0.66628051  0.40563822    -0.38440
N3096       N  0.38580792  0.70621709  0.57536389    -0.38440
N3097       N  0.38660434  0.71256871  0.41037769    -0.37880
N3098       N  0.33818025  0.62700589  0.56436416    -0.37890
C3099       C  0.54393655  0.63475870  0.65044529    -0.04550
C3100       C  0.53567473  0.62639575  0.61880477    -0.01670
C3101       C  0.52142245  0.64923436  0.60035879     0.03320
C3102       C  0.52769655  0.68112289  0.60844555    -0.04550
C3103       C  0.54298684  0.68905826  0.63705806    -0.01660
C3104       C  0.54351226  0.66659906  0.66020463     0.03320
C3105       C  0.53815624  0.59467316  0.60575618     0.37970
C3106       C  0.56090710  0.71781051  0.64161702     0.37960
C3107       C  0.52586012  0.67520062  0.68726594     0.36380
C3108       C  0.49934035  0.63962641  0.57469129     0.36380
N3109       N  0.50807314  0.68146982  0.70637363    -0.38440
N3110       N  0.48152922  0.63207859  0.55451475    -0.38440
N3111       N  0.57724675  0.73967297  0.64418691    -0.37880
N3112       N  0.54046127  0.56972860  0.59467503    -0.37890
C3113       C  0.68671576  0.68102707  0.50628434    -0.04550
C3114       C  0.67352826  0.67173043  0.47622584    -0.01670
C3115       C  0.64136260  0.66345003  0.47313806     0.03320
C3116       C  0.62083942  0.67005047  0.49780914    -0.04550
C3117       C  0.63294000  0.68458880  0.52581118    -0.01660
C3118       C  0.66570708  0.69018972  0.53002848     0.03320
C3119       C  0.69337868  0.66616896  0.44947387     0.37970
C3120       C  0.61165029  0.69467095  0.55010090     0.37960
C3121       C  0.67768619  0.69997252  0.56106277     0.36380
C3122       C  0.62869122  0.64969095  0.44361632     0.36380
N3123       N  0.68483834  0.70724175  0.58672459    -0.38440
N3124       N  0.61847743  0.63880855  0.42018855    -0.38440
N3125       N  0.59513444  0.70301815  0.56969647    -0.37880
N3126       N  0.70884527  0.66147118  0.42792927    -0.37890
C3127       C  0.64815435  0.50498270  0.22807296    -0.04550
C3128       C  0.65987576  0.52985192  0.24773399    -0.01670
C3129       C  0.68878667  0.52691231  0.26604428     0.03320
C3130       C  0.70907665  0.50056740  0.26196966    -0.04550
C3131       C  0.69687792  0.47520460  0.24282865    -0.01660
C3132       C  0.66721304  0.47765392  0.22578454     0.03320
C3133       C  0.64146352  0.55861405  0.24916702     0.37970
C3134       C  0.71397949  0.44562474  0.24198890     0.37960
C3135       C  0.65542771  0.45122461  0.20667563     0.36380
C3136       C  0.69711186  0.55124569  0.28908792     0.36380
N3137       N  0.64604455  0.43016681  0.19137095    -0.38440
N3138       N  0.70263007  0.57099325  0.30756539    -0.38440
N3139       N  0.72689765  0.42156103  0.24148050    -0.37880
N3140       N  0.62667387  0.58156834  0.24921238    -0.37890
C3141       C  0.36576851  0.50720420  0.21244549    -0.04550
C3142       C  0.35392126  0.48416425  0.23302551    -0.01670
C3143       C  0.32373720  0.48806042  0.24811549     0.03320
C3144       C  0.30535832  0.51663618  0.24544815    -0.04550
C3145       C  0.31979537  0.54079032  0.22785658    -0.01660
C3146       C  0.34632416  0.53473601  0.20869241     0.03320
C3147       C  0.37261820  0.45603355  0.23832173     0.37970
C3148       C  0.30677710  0.57242509  0.22829723     0.37960
C3149       C  0.35325233  0.55769144  0.18463835     0.36380
C3150       C  0.31241739  0.46192455  0.26614430     0.36380
N3151       N  0.35850624  0.57604405  0.16546564    -0.38440
N3152       N  0.30574057  0.43993309  0.28045227    -0.38440
N3153       N  0.29739689  0.59806637  0.22798039    -0.37880
N3154       N  0.38767840  0.43356313  0.24248849    -0.37890
C3155       C  0.50458294  0.36587309  0.22206503    -0.04550
C3156       C  0.53056478  0.34818445  0.23536504    -0.01670
C3157       C  0.52595564  0.32045392  0.25347433     0.03320
C3158       C  0.49626622  0.30487745  0.25327363    -0.04550
C3159       C  0.47040240  0.32094299  0.23731526    -0.01660
C3160       C  0.47429545  0.35161380  0.22347062     0.03320
C3161       C  0.56274942  0.35917988  0.23106854     0.37970
C3162       C  0.43912656  0.30684298  0.23603195     0.37960
C3163       C  0.44694852  0.36886105  0.21130374     0.36380
C3164       C  0.55221628  0.30827993  0.27271168     0.36380
N3165       N  0.42511277  0.38267532  0.20152705    -0.38440
N3166       N  0.57346563  0.29918650  0.28814105    -0.38440
N3167       N  0.41370625  0.29640082  0.23487128    -0.37880
N3168       N  0.58840106  0.36788288  0.22753139    -0.37890
C3169       C  0.53935422  0.64588629  0.22709097    -0.04550
C3170       C  0.54347646  0.67215020  0.20796889    -0.01670
C3171       C  0.55009730  0.70233989  0.22204017     0.03320
C3172       C  0.53661949  0.71104283  0.25130959    -0.04550
C3173       C  0.53707099  0.68485513  0.27221525    -0.01660
C3174       C  0.53844619  0.65263809  0.25999050     0.03320
C3175       C  0.54483205  0.66686017  0.17434543     0.37970
C3176       C  0.54490631  0.69151413  0.30490121     0.37960
C3177       C  0.54073970  0.62566968  0.28008059     0.36380
C3178       C  0.58328555  0.71048855  0.22068944     0.36380
N3179       N  0.54305066  0.60206610  0.29338125    -0.38440
N3180       N  0.61023891  0.71569164  0.22028666    -0.38440
N3181       N  0.55370855  0.69843835  0.33022665    -0.37880
N3182       N  0.54518290  0.66105242  0.14759506    -0.37890
C3183       C  0.35733089  0.53357592  0.30815218    -0.04550
C3184       C  0.34525657  0.50565798  0.32010430    -0.01670
C3185       C  0.31959434  0.50710547  0.33903869     0.03320
C3186       C  0.31268486  0.53669033  0.35302936    -0.04550
C3187       C  0.32392725  0.56479796  0.34032559    -0.01660
C3188       C  0.34473550  0.56317606  0.31573906     0.03320
C3189       C  0.36265919  0.47626592  0.31789423     0.37970
C3190       C  0.31456023  0.59509584  0.35277758     0.37960
C3191       C  0.35667032  0.59191152  0.30217605     0.36380
C3192       C  0.30484738  0.47739877  0.34729896     0.36380
N3193       N  0.36600095  0.61488665  0.29130614    -0.38440
N3194       N  0.29427861  0.45298720  0.35302636    -0.38440
N3195       N  0.30662812  0.61957181  0.36161928    -0.37880
N3196       N  0.37740699  0.45340643  0.31719607    -0.37890
C3197       C  0.47677823  0.65104247  0.33069175    -0.04550
C3198       C  0.45180031  0.67299867  0.32720107    -0.01670
C3199       C  0.45009019  0.69780317  0.34896774     0.03320
C3200       C  0.47458597  0.70142112  0.37192466    -0.04550
C3201       C  0.50122736  0.68111900  0.37306372    -0.01660
C3202       C  0.50182988  0.65552866  0.35299265     0.03320
C3203       C  0.42750337  0.66986483  0.30220992     0.37970
C3204       C  0.52835933  0.68532690  0.39512293     0.37960
C3205       C  0.52950517  0.63502854  0.35526070     0.36380
C3206       C  0.42305473  0.71894497  0.34813088     0.36380
N3207       N  0.55299033  0.62128073  0.35896243    -0.38440
N3208       N  0.40141965  0.73570109  0.34659401    -0.38440
N3209       N  0.55097143  0.68743487  0.41135153    -0.37880
N3210       N  0.40837471  0.66833604  0.28191367    -0.37890
C3211       C  0.61256031  0.54974470  0.34740613    -0.04550
C3212       C  0.63201568  0.52685244  0.36262433    -0.01670
C3213       C  0.66085484  0.53612894  0.37710997     0.03320
C3214       C  0.66893820  0.56825608  0.37776958    -0.04550
C3215       C  0.65264694  0.58992040  0.35884311    -0.01660
C3216       C  0.62478590  0.58041006  0.34256183     0.03320
C3217       C  0.62200865  0.49410873  0.36451807     0.37970
C3218       C  0.66389360  0.62235927  0.35757940     0.37960
C3219       C  0.61150009  0.60200612  0.31967204     0.36380
C3220       C  0.68059175  0.51353899  0.39433324     0.36380
N3221       N  0.60517474  0.62162887  0.30178081    -0.38440
N3222       N  0.69637933  0.49578073  0.40827393    -0.38440
N3223       N  0.67282193  0.64816513  0.35659733    -0.37880
N3224       N  0.61402826  0.46801332  0.36571658    -0.37890
C3225       C  0.50071908  0.25252308  0.64310380    -0.04550
C3226       C  0.47639871  0.24692311  0.66462695    -0.01670
C3227       C  0.47469965  0.26419099  0.69349544     0.03320
C3228       C  0.49818583  0.28697757  0.70276396    -0.04550
C3229       C  0.52126276  0.29411704  0.67989885    -0.01660
C3230       C  0.52291854  0.27644144  0.65103013     0.03320
C3231       C  0.45247378  0.22308516  0.65673249     0.37970
C3232       C  0.54556323  0.31753432  0.68616291     0.37960
C3233       C  0.54798536  0.28253556  0.62935650     0.36380
C3234       C  0.44910025  0.25707177  0.71415044     0.36380
N3235       N  0.56825271  0.28691720  0.61224964    -0.38440
N3236       N  0.42834042  0.25021469  0.72980032    -0.38440
N3237       N  0.56638421  0.33528338  0.68892554    -0.37880
N3238       N  0.43340789  0.20411534  0.65042878    -0.37890
C3239       C  0.49928867  0.23543530  0.36377140    -0.04550
C3240       C  0.47452118  0.25524582  0.35233827    -0.01670
C3241       C  0.47396869  0.26786717  0.32096895     0.03320
C3242       C  0.49741951  0.25966063  0.29896486    -0.04550
C3243       C  0.52178404  0.23872722  0.31042599    -0.01660
C3244       C  0.52270777  0.22723320  0.34211759     0.03320
C3245       C  0.44978606  0.26321067  0.37363563     0.37970
C3246       C  0.54666517  0.22858540  0.29005956     0.37960
C3247       C  0.54866260  0.20713876  0.35294054     0.36380
C3248       C  0.44800877  0.28815141  0.31116990     0.36380
N3249       N  0.56935429  0.19108518  0.36154450    -0.38440
N3250       N  0.42653293  0.30380860  0.30401460    -0.38440
N3251       N  0.56691871  0.21916629  0.27492464    -0.37880
N3252       N  0.43047610  0.26945907  0.39127484    -0.37890
C3253       C  0.29410376  0.26287818  0.49477416    -0.04550
C3254       C  0.30730895  0.24247618  0.51821073    -0.01670
C3255       C  0.33328650  0.22224288  0.51199411     0.03320
C3256       C  0.35235401  0.22641545  0.48532179    -0.04550
C3257       C  0.34050957  0.24784128  0.46233552    -0.01660
C3258       C  0.31193865  0.26575612  0.46691259     0.03320
C3259       C  0.29528590  0.24264133  0.54973914     0.37970
C3260       C  0.35724508  0.25105869  0.43349846     0.37960
C3261       C  0.30149183  0.28743771  0.44267566     0.36380
C3262       C  0.34208446  0.19802468  0.53476944     0.36380
N3263       N  0.29407651  0.30440311  0.42253316    -0.38440
N3264       N  0.34901773  0.17869454  0.55284635    -0.38440
N3265       N  0.36956445  0.25336308  0.40973467    -0.37880
N3266       N  0.28724599  0.24187117  0.57553847    -0.37890
C3267       C  0.63299003  0.24881241  0.51276916    -0.04550
C3268       C  0.64523978  0.26052689  0.48437521    -0.01670
C3269       C  0.67483582  0.27639245  0.48452328     0.03320
C3270       C  0.69662413  0.27389487  0.51049353    -0.04550
C3271       C  0.68566521  0.25909728  0.53824256    -0.01660
C3272       C  0.65391643  0.24750126  0.53948194     0.03320
C3273       C  0.62601525  0.25845029  0.45523371     0.37970
C3274       C  0.70483087  0.26030010  0.56729484     0.37960
C3275       C  0.64202647  0.23593887  0.56887788     0.36380
C3276       C  0.68169338  0.29712368  0.45865284     0.36380
N3277       N  0.63250254  0.22669797  0.59232799    -0.38440
N3278       N  0.68643808  0.31401753  0.43805960    -0.38440
N3279       N  0.71851806  0.26223289  0.59145286    -0.37880
N3280       N  0.61074275  0.25666641  0.43198071    -0.37890
C3281       C  0.46402344  0.34120389  0.36551384    -0.04550
C3282       C  0.49184437  0.34968433  0.35077119    -0.01670
C3283       C  0.49342529  0.38006593  0.33939194     0.03320
C3284       C  0.46455330  0.39650067  0.33236025    -0.04550
C3285       C  0.43541688  0.38077197  0.33576628    -0.01660
C3286       C  0.43505131  0.35431162  0.35519266     0.03320
C3287       C  0.51980795  0.32968442  0.35147132     0.37970
C3288       C  0.40751472  0.38824030  0.31652515     0.37960
C3289       C  0.40559850  0.33961631  0.36367327     0.36380
C3290       C  0.52476984  0.39429617  0.33738633     0.36380
N3291       N  0.38232984  0.32714435  0.37011720    -0.38440
N3292       N  0.54980844  0.40537137  0.33603240    -0.38440
N3293       N  0.38503779  0.39142637  0.30034669    -0.37880
N3294       N  0.54233320  0.31412522  0.35158932    -0.37890
C3295       C  0.34776123  0.34938447  0.48686706    -0.04550
C3296       C  0.34686224  0.37222594  0.46293712    -0.01670
C3297       C  0.36287473  0.40066708  0.46947519     0.03320
C3298       C  0.36364241  0.41212374  0.50083332    -0.04550
C3299       C  0.35828365  0.39150119  0.52565145    -0.01660
C3300       C  0.34933893  0.36019388  0.51889991     0.03320
C3301       C  0.33858874  0.36353980  0.43052219     0.37970
C3302       C  0.36056535  0.40322643  0.55800477     0.37960
C3303       C  0.34777700  0.33864695  0.54512748     0.36380
C3304       C  0.37164392  0.42129821  0.44399451     0.36380
N3305       N  0.34854684  0.32181392  0.56647377    -0.38440
N3306       N  0.37861596  0.43779214  0.42377087    -0.38440
N3307       N  0.36244576  0.41239857  0.58383520    -0.37880
N3308       N  0.33187113  0.35796429  0.40431819    -0.37890
C3309       C  0.48853352  0.36711061  0.62034229    -0.04550
C3310       C  0.52167126  0.36683865  0.61676363    -0.01670
C3311       C  0.54163294  0.38009336  0.64043565     0.03320
C3312       C  0.52841354  0.39266090  0.66780073    -0.04550
C3313       C  0.49554664  0.38992128  0.67260580    -0.01660
C3314       C  0.47576516  0.37583990  0.64923261     0.03320
C3315       C  0.53533306  0.35301436  0.58894666     0.37970
C3316       C  0.48138256  0.40766349  0.69783043     0.37960
C3317       C  0.44203152  0.37228081  0.65385703     0.36380
C3318       C  0.57543305  0.38336911  0.63556598     0.36380
N3319       N  0.41515861  0.36872567  0.65721768    -0.38440
N3320       N  0.60234094  0.38602680  0.63173366    -0.38440
N3321       N  0.47070050  0.42339839  0.71714900    -0.37880
N3322       N  0.54669845  0.34159247  0.56720266    -0.37890
C3323       C  0.61708198  0.46310490  0.47952848    -0.04550
C3324       C  0.59678093  0.46634759  0.50507948    -0.01670
C3325       C  0.57720093  0.44112417  0.51305096     0.03320
C3326       C  0.57663403  0.41336102  0.49439498    -0.04550
C3327       C  0.59538473  0.41122871  0.46723637    -0.01660
C3328       C  0.61617658  0.43586338  0.46042425     0.03320
C3329       C  0.59823902  0.49450500  0.52499152     0.37970
C3330       C  0.59413396  0.38374551  0.44639483     0.37960
C3331       C  0.63834583  0.43229019  0.43516527     0.36380
C3332       C  0.55985455  0.44280598  0.54200076     0.36380
N3333       N  0.65622077  0.42920310  0.41530020    -0.38440
N3334       N  0.54627565  0.44403583  0.56521718    -0.38440
N3335       N  0.59345349  0.36189755  0.42972894    -0.37880
N3336       N  0.59951298  0.51692498  0.54084468    -0.37890
loop_ 
_geom_bond_atom_site_label_1 
_geom_bond_atom_site_label_2 
_geom_bond_distance 
_geom_bond_site_symmetry_2 
_ccdc_geom_bond_type 
C1           N19   1.349       .  A
C1           C38   1.439       .  S
C1         C3309   1.454       .  S
N2           N19   1.319       .  A
N2           N24   1.313       .  A
N2          Co39   2.060       .  S
C3           N28   1.385       .  A
C3           C41   1.530       .  S
C3           H48   1.081       .  S
H4           C45   1.081       .  S
C5           N29   1.318       .  A
C5            C9   1.433       .  S
C5           H34   1.082       .  S
Co6          N24   2.037       .  S
Co6          N14   1.957       .  S
Co6          N46   2.034       .  S
Co6          N22   1.969       .  S
Co6         Cl50   2.452       .  S
N7           C45   1.374       .  A
N7           N14   1.320       .  A
N7           Co8   2.244       .  S
Co8          N11   2.213       .  S
Co8          N28   2.246       .  S
Co8          N15   2.198       .  S
Co8         Cl50   2.392       .  S
C9           N47   1.381       .  A
C9         C3267   1.509       .  S
N10          N17   1.312       .  A
N10          N40   1.315       .  A
N10         Co43   2.042       .  S
N11          N29   1.316       .  A
N11          N47   1.344       .  A
N12          C41   1.316       .  A
N12          N22   1.300       .  A
H13          C38   1.080       .  S
N14          N35   1.305       .  A
N15          N33   1.313       .  A
N15          N20   1.349       .  A
C16          N20   1.388       .  A
C16          C44   1.431       .  S
C16        C3239   1.530       .  S
N17          C32   1.336       .  A
N17         Co39   2.050       .  S
C18          N46   1.332       .  A
C18          C21   1.458       .  S
C18          H52   1.078       .  S
C21          N42   1.346       .  A
C21        C3295   1.461       .  S
N22          N28   1.311       .  A
N23          C49   1.336       .  A
N23          N25   1.309       .  A
N23         Co39   2.033       .  S
N24          C38   1.330       .  A
N25          N53   1.308       .  A
N25         Co43   2.032       .  S
H26          C49   1.081       .  S
H27          C44   1.079       .  S
N29         Co43   1.991       .  S
N30          N42   1.305       .  A
N30          N46   1.307       .  A
N30         Co39   2.036       .  S
C31          N35   1.318       .  A
C31          C45   1.513       .  S
C31        C3225   1.506       .  S
C32          C51   1.460       .  S
C32          H36   1.081       .  S
N33          C44   1.328       .  A
N33         Co43   2.041       .  S
C37          N53   1.335       .  A
C37          C49   1.457       .  S
C37        C3281   1.446       .  S
Co39        Cl50   2.424       .  S
N40          C51   1.342       .  A
C41        C3256   1.532       .  S
Co43        Cl50   2.402       .  S
C51        C3326   1.471       .  S
C54          N72   1.323       .  A
C54          C91   1.473       .  S
C54        C3284   1.453       .  S
N55          N72   1.303       .  A
N55          N77   1.303       .  A
N55         Co92   2.006       .  S
C56          N81   1.326       .  A
C56          C94   1.434       .  S
C56         H101   1.081       .  S
H57          C98   1.078       .  S
C58          N82   1.388       .  A
C58          C62   1.536       .  S
C58          H87   1.081       .  S
Co59         N77   2.056       .  S
Co59         N67   2.031       .  S
Co59         N99   2.080       .  S
Co59         N75   2.027       .  S
Co59       Cl103   2.429       .  S
N60          C98   1.319       .  A
N60          N67   1.321       .  A
N60         Co61   2.013       .  S
Co61         N64   1.991       .  S
Co61         N81   2.010       .  S
Co61         N68   1.949       .  S
Co61       Cl103   2.479       .  S
C62         N100   1.327       .  A
C62        C3141   1.567       .  S
N63          N70   1.308       .  A
N63          N93   1.359       .  A
N63         Co96   2.254       .  S
N64          N82   1.308       .  A
N64         N100   1.310       .  A
N65          C94   1.340       .  A
N65          N75   1.308       .  A
H66          C91   1.081       .  S
N67          N88   1.305       .  A
N68          N86   1.318       .  A
N68          N73   1.314       .  A
C69          N73   1.319       .  A
C69          C97   1.528       .  S
C69        C3169   1.541       .  S
N70          C85   1.314       .  A
N70         Co92   1.971       .  S
C71          N99   1.345       .  A
C71          C74   1.469       .  S
C71         H105   1.074       .  S
C74          N95   1.329       .  A
C74        C3211   1.458       .  S
N75          N81   1.318       .  A
N76         C102   1.318       .  A
N76          N78   1.313       .  A
N76         Co92   1.978       .  S
N77          C91   1.350       .  A
N78         N106   1.347       .  A
N78         Co96   2.211       .  S
H79         C102   1.082       .  S
H80          C97   1.081       .  S
N82         Co96   2.268       .  S
N83          N95   1.311       .  A
N83          N99   1.311       .  A
N83         Co92   2.014       .  S
C84          N88   1.337       .  A
C84          C98   1.423       .  S
C84        C3183   1.412       .  S
C85         C104   1.415       .  S
C85          H89   1.082       .  S
N86          C97   1.384       .  A
N86         Co96   2.298       .  S
C90         N106   1.382       .  A
C90         C102   1.419       .  S
C90        C3127   1.501       .  S
Co92       Cl103   2.405       .  S
N93         C104   1.399       .  A
C94        C3197   1.424       .  S
Co96       Cl103   2.340       .  S
C104       C3155   1.540       .  S
C107        N125   1.331       .  A
C107        C144   1.429       .  S
C107       C3088   1.402       .  S
N108        N125   1.303       .  A
N108        N130   1.305       .  A
N108       Co145   2.002       .  S
C109        N134   1.401       .  A
C109        C147   1.553       .  S
C109        H154   1.081       .  S
H110        C151   1.081       .  S
C111        N135   1.306       .  A
C111        C115   1.399       .  S
C111        H140   1.084       .  S
Co112       N130   1.985       .  S
Co112       N120   2.027       .  S
Co112       N152   2.068       .  S
Co112       N128   1.934       .  S
Co112      Cl156   2.495       .  S
N113        C151   1.397       .  A
N113        N120   1.319       .  A
N113       Co114   2.319       .  S
Co114       N117   2.300       .  S
Co114       N134   2.311       .  S
Co114       N121   2.281       .  S
Co114      Cl156   2.324       .  S
C115        N153   1.415       .  A
C115       C3071   1.556       .  S
N116        N123   1.309       .  A
N116        N146   1.314       .  A
N116       Co149   2.032       .  S
N117        N135   1.295       .  A
N117        N153   1.366       .  A
N118        C147   1.317       .  A
N118        N128   1.302       .  A
H119        C144   1.080       .  S
N120        N141   1.319       .  A
N121        N139   1.321       .  A
N121        N126   1.357       .  A
C122        N126   1.395       .  A
C122        C150   1.426       .  S
C122       C3029   1.541       .  S
N123        C138   1.328       .  A
N123       Co145   2.027       .  S
C124        N152   1.339       .  A
C124        C127   1.452       .  S
C124        H158   1.074       .  S
C127        N148   1.318       .  A
C127       C3102   1.417       .  S
N128        N134   1.308       .  A
N129        C155   1.351       .  A
N129        N131   1.296       .  A
N129       Co145   2.054       .  S
N130        C144   1.324       .  A
N131        N159   1.300       .  A
N131       Co149   1.969       .  S
H132        C155   1.081       .  S
H133        C150   1.077       .  S
N135       Co149   1.891       .  S
N136        N148   1.294       .  A
N136        N152   1.316       .  A
N136       Co145   1.976       .  S
C137        N141   1.336       .  A
C137        C151   1.547       .  S
C137       C3057   1.598       .  S
C138        C157   1.455       .  S
C138        H142   1.079       .  S
N139        C150   1.317       .  A
N139       Co149   1.990       .  S
C143        N159   1.323       .  A
C143        C155   1.471       .  S
C143       C3116   1.449       .  S
Co145      Cl156   2.386       .  S
N146        C157   1.339       .  A
C147       C3043   1.576       .  S
Co149      Cl156   2.400       .  S
C157       C3200   1.428       .  S
C160        N178   1.340       .  A
C160        C197   1.439       .  S
C160       C3214   1.429       .  S
N161        N178   1.310       .  A
N161        N183   1.310       .  A
N161       Co198   2.039       .  S
C162        N187   1.384       .  A
C162        C200   1.524       .  S
C162        H207   1.080       .  S
H163        C204   1.081       .  S
C164        N188   1.305       .  A
C164        C168   1.431       .  S
C164        H193   1.071       .  S
Co165       N183   2.007       .  S
Co165       N173   2.011       .  S
Co165       N205   2.105       .  S
Co165       N181   1.992       .  S
Co165      Cl209   2.485       .  S
N166        C204   1.379       .  A
N166        N173   1.323       .  A
N166       Co167   2.251       .  S
Co167       N170   2.250       .  S
Co167       N187   2.245       .  S
Co167       N174   2.223       .  S
Co167      Cl209   2.369       .  S
C168        N206   1.401       .  A
C168       C2987   1.555       .  S
N169        N176   1.315       .  A
N169        N199   1.313       .  A
N169       Co202   2.064       .  S
N170        N188   1.305       .  A
N170        N206   1.359       .  A
N171        C200   1.327       .  A
N171        N181   1.308       .  A
H172        C197   1.081       .  S
N173        N194   1.315       .  A
N174        N192   1.313       .  A
N174        N179   1.350       .  A
C175        N179   1.388       .  A
C175        C203   1.434       .  S
C175       C2973   1.536       .  S
N176        C191   1.337       .  A
N176       Co198   2.051       .  S
C177        N205   1.341       .  A
C177        C180   1.480       .  S
C177        H211   1.079       .  S
C180        N201   1.336       .  A
C180       C3113   1.465       .  S
N181        N187   1.310       .  A
N182        C208   1.349       .  A
N182        N184   1.302       .  A
N182       Co198   2.026       .  S
N183        C197   1.333       .  A
N184        N212   1.290       .  A
N184       Co202   1.978       .  S
H185        C208   1.082       .  S
H186        C203   1.080       .  S
N188       Co202   1.958       .  S
N189        N201   1.305       .  A
N189        N205   1.315       .  A
N189       Co198   2.033       .  S
C190        N194   1.333       .  A
C190        C204   1.516       .  S
C190       C3001   1.538       .  S
C191        C210   1.459       .  S
C191        H195   1.081       .  S
N192        C203   1.334       .  A
N192       Co202   2.036       .  S
C196        N212   1.321       .  A
C196        C208   1.463       .  S
C196       C3018   1.440       .  S
Co198      Cl209   2.415       .  S
N199        C210   1.342       .  A
C200       C2959   1.545       .  S
Co202      Cl209   2.393       .  S
C210       C3323   1.451       .  S
C213        N231   1.334       .  A
C213        C250   1.462       .  S
C213       C3312   1.444       .  S
N214        N231   1.307       .  A
N214        N236   1.310       .  A
N214       Co251   2.012       .  S
C215        N240   1.393       .  A
C215        C253   1.541       .  S
C215        H260   1.081       .  S
H216        C257   1.081       .  S
C217        N241   1.332       .  A
C217        C221   1.430       .  S
C217        H246   1.081       .  S
Co218       N236   2.065       .  S
Co218       N226   1.951       .  S
Co218       N258   2.035       .  S
Co218       N234   2.000       .  S
Co218      Cl262   2.497       .  S
N219        C257   1.385       .  A
N219        N226   1.314       .  A
N219       Co220   2.242       .  S
Co220       N223   2.264       .  S
Co220       N240   2.286       .  S
Co220       N227   2.230       .  S
Co220      Cl262   2.346       .  S
C221        N259   1.394       .  A
C221       C2917   1.547       .  S
N222        N229   1.313       .  A
N222        N252   1.311       .  A
N222       Co255   2.048       .  S
N223        N241   1.314       .  A
N223        N259   1.356       .  A
N224        C253   1.327       .  A
N224        N234   1.311       .  A
H225        C250   1.080       .  S
N226        N247   1.293       .  A
N227        N245   1.315       .  A
N227        N232   1.352       .  A
C228        N232   1.387       .  A
C228        C256   1.438       .  S
C228       C2889   1.542       .  S
N229        C244   1.337       .  A
N229       Co251   2.052       .  S
C230        N258   1.325       .  A
C230        C233   1.445       .  S
C230        H264   1.060       .  S
C233        N254   1.336       .  A
C233       C3015   1.432       .  S
N234        N240   1.313       .  A
N235        C261   1.323       .  A
N235        N237   1.304       .  A
N235       Co251   1.992       .  S
N236        C250   1.342       .  A
N237        N265   1.312       .  A
N237       Co255   2.025       .  S
H238        C261   1.080       .  S
H239        C256   1.079       .  S
N241       Co255   2.005       .  S
N242        N254   1.305       .  A
N242        N258   1.305       .  A
N242       Co251   2.017       .  S
C243        N247   1.317       .  A
C243        C257   1.523       .  S
C243       C2931   1.528       .  S
C244        C263   1.461       .  S
C244        H248   1.081       .  S
N245        C256   1.332       .  A
N245       Co255   2.035       .  S
C249        N265   1.342       .  A
C249        C261   1.430       .  S
C249       C3099   1.426       .  S
Co251      Cl262   2.388       .  S
N252        C263   1.341       .  A
C253       C2903   1.577       .  S
Co255      Cl262   2.455       .  S
C263       C2945   1.443       .  S
C266        N284   1.336       .  A
C266        C303   1.453       .  S
C266       C3298   1.430       .  S
N267        N284   1.300       .  A
N267        N289   1.306       .  A
N267       Co304   2.021       .  S
C268        N293   1.301       .  A
C268        C306   1.419       .  S
C268        H313   1.068       .  S
H269        C310   1.078       .  S
C270        N294   1.389       .  A
C270        C274   1.535       .  S
C270        H299   1.081       .  S
Co271       N289   2.019       .  S
Co271       N279   2.023       .  S
Co271       N311   2.007       .  S
Co271       N287   2.003       .  S
Co271      Cl315   2.451       .  S
N272        C310   1.337       .  A
N272        N279   1.316       .  A
N272       Co273   2.045       .  S
Co273       N276   1.942       .  S
Co273       N293   2.002       .  S
Co273       N280   2.021       .  S
Co273      Cl315   2.424       .  S
C274        N312   1.318       .  A
C274       C2833   1.547       .  S
N275        N282   1.314       .  A
N275        N305   1.353       .  A
N275       Co308   2.266       .  S
N276        N294   1.313       .  A
N276        N312   1.300       .  A
N277        C306   1.339       .  A
N277        N287   1.312       .  A
H278        C303   1.081       .  S
N279        N300   1.307       .  A
N280        N298   1.310       .  A
N280        N285   1.313       .  A
C281        N285   1.331       .  A
C281        C309   1.543       .  S
C281       C2861   1.587       .  S
N282        C297   1.319       .  A
N282       Co304   1.952       .  S
C283        N311   1.335       .  A
C283        C286   1.458       .  S
C283        H317   1.081       .  S
C286        N307   1.324       .  A
C286       C3186   1.434       .  S
N287        N293   1.310       .  A
N288        C314   1.322       .  A
N288        N290   1.305       .  A
N288       Co304   2.012       .  S
N289        C303   1.340       .  A
N290        N318   1.357       .  A
N290       Co308   2.253       .  S
H291        C314   1.076       .  S
H292        C309   1.081       .  S
N294       Co308   2.274       .  S
N295        N307   1.302       .  A
N295        N311   1.307       .  A
N295       Co304   2.024       .  S
C296        N300   1.332       .  A
C296        C310   1.442       .  S
C296       C2948   1.428       .  S
C297        C316   1.414       .  S
C297        H301   1.082       .  S
N298        C309   1.394       .  A
N298       Co308   2.278       .  S
C302        N318   1.400       .  A
C302        C314   1.434       .  S
C302       C2847   1.562       .  S
Co304      Cl315   2.387       .  S
N305        C316   1.391       .  A
C306       C3085   1.409       .  S
Co308      Cl315   2.350       .  S
C316       C2875   1.519       .  S
C319        N337   1.343       .  A
C319        C356   1.458       .  S
C319       C2777   1.463       .  S
N320        N337   1.309       .  A
N320        N342   1.315       .  A
N320       Co357   2.035   1_556  S
C321        N346   1.384   1_554  A
C321        C359   1.526   1_554  S
C321        H366   1.080       .  S
H322        C363   1.080       .  S
C323        N347   1.321       .  A
C323        C327   1.440       .  S
C323        H352   1.075       .  S
Co324       N342   2.075       .  S
Co324       N332   1.930       .  S
Co324       N364   1.956       .  S
Co324       N340   2.072       .  S
Co324      Cl368   2.401   1_556  S
N325        C363   1.393       .  A
N325        N332   1.305       .  A
N325       Co326   2.254   1_556  S
Co326       N329   2.204       .  S
Co326       N346   2.250   1_554  S
Co326       N333   2.253       .  S
Co326      Cl368   2.434       .  S
C327        N365   1.383       .  A
C327       C2735   1.534       .  S
N328        N335   1.304       .  A
N328        N358   1.305       .  A
N328       Co361   1.999       .  S
N329        N347   1.320       .  A
N329        N365   1.349       .  A
N330        C359   1.345       .  A
N330        N340   1.325       .  A
H331        C356   1.076       .  S
N332        N353   1.303       .  A
N333        N351   1.305       .  A
N333        N338   1.358       .  A
C334        N338   1.399       .  A
C334        C362   1.397       .  S
C334       C2749   1.524       .  S
N335        C350   1.339       .  A
N335       Co357   2.035       .  S
C336        N364   1.310       .  A
C336        C339   1.420       .  S
C336        H370   1.080       .  S
C339        N360   1.351       .  A
C339       C2805   1.421       .  S
N340        N346   1.323       .  A
N341        C367   1.339       .  A
N341        N343   1.311       .  A
N341       Co357   2.049       .  S
N342        C356   1.330       .  A
N343        N371   1.308       .  A
N343       Co361   2.041       .  S
H344        C367   1.081       .  S
H345        C362   1.083       .  S
N347       Co361   2.050       .  S
N348        N360   1.316       .  A
N348        N364   1.304       .  A
N348       Co357   2.038   1_556  S
C349        N353   1.313       .  A
C349        C363   1.538       .  S
C349       C2763   1.548       .  S
C350        C369   1.464       .  S
C350        H354   1.082   1_554  S
N351        C362   1.311       .  A
N351       Co361   1.920       .  S
C355        N371   1.337       .  A
C355        C367   1.468       .  S
C355       C2791   1.440       .  S
Co357      Cl368   2.464       .  S
N358        C369   1.324       .  A
C359       C2721   1.582   1_556  S
Co361      Cl368   2.370       .  S
C369       C2819   1.448       .  S
C372        N390   1.341       .  A
C372        C409   1.449       .  S
C372       C2780   1.448       .  S
N373        N390   1.311       .  A
N373        N395   1.314       .  A
N373       Co410   2.048       .  S
C374        N399   1.330       .  A
C374        C412   1.446       .  S
C374        H419   1.080       .  S
H375        C416   1.081       .  S
C376        N400   1.373       .  A
C376        C380   1.509       .  S
C376        H405   1.081   1_455  S
Co377       N395   2.033   1_455  S
Co377       N385   2.034       .  S
Co377       N417   2.036       .  S
Co377       N393   2.045       .  S
Co377      Cl421   2.425       .  S
N378        C416   1.332       .  A
N378        N385   1.314       .  A
N378       Co379   2.048       .  S
Co379       N382   2.010       .  S
Co379       N399   2.070       .  S
Co379       N386   2.005       .  S
Co379      Cl421   2.434       .  S
C380        N418   1.338       .  A
C380       C2654   1.532       .  S
N381        N388   1.318       .  A
N381        N411   1.360       .  A
N381       Co414   2.303   1_655  S
N382        N400   1.321       .  A
N382        N418   1.317       .  A
N383        C412   1.350       .  A
N383        N393   1.315       .  A
H384        C409   1.081       .  S
N385        N406   1.314       .  A
N386        N404   1.311       .  A
N386        N391   1.312       .  A
C387        N391   1.326       .  A
C387        C415   1.527       .  S
C387       C2623   1.546       .  S
N388        C403   1.323       .  A
N388       Co410   1.983       .  S
C389        N417   1.330       .  A
C389        C392   1.470       .  S
C389        H423   1.080       .  S
C392        N413   1.334   1_455  A
C392       C2693   1.474   1_455  S
N393        N399   1.312       .  A
N394        C420   1.313       .  A
N394        N396   1.297       .  A
N394       Co410   1.999       .  S
N395        C409   1.336       .  A
N396        N424   1.359   1_655  A
N396       Co414   2.252   1_655  S
H397        C420   1.075       .  S
H398        C415   1.081       .  S
N400       Co414   2.234       .  S
N401        N413   1.307   1_455  A
N401        N417   1.311       .  A
N401       Co410   2.059   1_455  S
C402        N406   1.339       .  A
C402        C416   1.451       .  S
C402       C2707   1.449       .  S
C403        C422   1.439       .  S
C403        H407   1.082       .  S
N404        C415   1.383       .  A
N404       Co414   2.239       .  S
C408        N424   1.401   1_655  A
C408        C420   1.439       .  S
C408       C2637   1.568       .  S
Co410      Cl421   2.440   1_655  S
N411        C422   1.398       .  A
C412       C2679   1.475       .  S
Co414      Cl421   2.337       .  S
C422       C2665   1.556       .  S
C425        N443   1.335       .  A
C425        C462   1.520       .  S
C425       C2525   1.550       .  S
N426        N443   1.312       .  A
N426        N448   1.319       .  A
N426       Co463   2.016       .  S
C427        N452   1.317       .  A
C427        C465   1.427       .  S
C427        H472   1.075       .  S
H428        C469   1.081   1_554  S
C429        N453   1.322   1_556  A
C429        C433   1.441       .  S
C429        H458   1.081       .  S
Co430       N448   2.239       .  S
Co430       N438   2.253       .  S
Co430       N470   2.253       .  S
Co430       N446   2.222   1_556  S
Co430      Cl474   2.376       .  S
N431        C469   1.314   1_554  A
N431        N438   1.318   1_554  A
N431       Co432   1.975       .  S
Co432       N435   2.062       .  S
Co432       N452   2.010       .  S
Co432       N439   2.050       .  S
Co432      Cl474   2.422   1_554  S
C433        N471   1.347   1_556  A
C433       C2595   1.455       .  S
N434        N441   1.310       .  A
N434        N464   1.319       .  A
N434       Co467   2.039   1_556  S
N435        N453   1.310       .  A
N435        N471   1.323       .  A
N436        C465   1.393       .  A
N436        N446   1.352       .  A
H437        C462   1.080       .  S
N438        N459   1.352       .  A
N439        N457   1.307       .  A
N439        N444   1.309       .  A
C440        N444   1.340       .  A
C440        C468   1.470       .  S
C440       C2584   1.466       .  S
N441        C456   1.311       .  A
N441       Co463   1.994       .  S
C442        N470   1.386   1_554  A
C442        C445   1.531   1_554  S
C442        H476   1.081       .  S
C445        N466   1.320       .  A
C445       C2553   1.540   1_556  S
N446        N452   1.307       .  A
N447        C473   1.338       .  A
N447        N449   1.314   1_556  A
N447       Co463   2.049       .  S
N448        C462   1.379       .  A
N449        N477   1.302       .  A
N449       Co467   2.025       .  S
H450        C473   1.080       .  S
H451        C468   1.081       .  S
N453       Co467   2.013       .  S
N454        N466   1.306       .  A
N454        N470   1.311       .  A
N454       Co463   1.977       .  S
C455        N459   1.389       .  A
C455        C469   1.429       .  S
C455       C2567   1.526       .  S
C456        C475   1.429       .  S
C456        H460   1.077       .  S
N457        C468   1.336       .  A
N457       Co467   2.042       .  S
C461        N477   1.336       .  A
C461        C473   1.455   1_554  S
C461       C2609   1.437       .  S
Co463      Cl474   2.460       .  S
N464        C475   1.343       .  A
C465       C2539   1.539       .  S
Co467      Cl474   2.408   1_554  S
C475       C2682   1.432       .  S
C478        N496   1.330       .  A
C478        C515   1.464       .  S
C478       C2794   1.445       .  S
N479        N496   1.311       .  A
N479        N501   1.307       .  A
N479       Co516   2.030       .  S
C480        N505   1.317       .  A
C480        C518   1.426       .  S
C480        H525   1.081       .  S
H481        C522   1.078       .  S
C482        N506   1.386   1_655  A
C482        C486   1.532   1_655  S
C482        H511   1.081       .  S
Co483       N501   2.042       .  S
Co483       N491   2.052       .  S
Co483       N523   2.061   1_655  S
Co483       N499   2.051   1_655  S
Co483      Cl527   2.467   1_655  S
N484        C522   1.330       .  A
N484        N491   1.312   1_455  A
N484       Co485   2.044       .  S
Co485       N488   1.971       .  S
Co485       N505   2.007       .  S
Co485       N492   1.963       .  S
Co485      Cl527   2.421       .  S
C486        N524   1.317       .  A
C486       C2486   1.538   1_455  S
N487        N494   1.306       .  A
N487        N517   1.357       .  A
N487       Co520   2.236   1_655  S
N488        N506   1.310       .  A
N488        N524   1.303       .  A
N489        C518   1.350       .  A
N489        N499   1.321       .  A
H490        C515   1.079       .  S
N491        N512   1.310       .  A
N492        N510   1.318       .  A
N492        N497   1.299       .  A
C493        N497   1.317       .  A
C493        C521   1.532       .  S
C493       C2455   1.540       .  S
N494        C509   1.314       .  A
N494       Co516   2.001       .  S
C495        N523   1.350       .  A
C495        C498   1.470       .  S
C495        H529   1.081       .  S
C498        N519   1.331       .  A
C498       C2511   1.453       .  S
N499        N505   1.311       .  A
N500        C526   1.320       .  A
N500        N502   1.315   1_655  A
N500       Co516   1.963       .  S
N501        C515   1.341       .  A
N502        N530   1.354       .  A
N502       Co520   2.265       .  S
H503        C526   1.082       .  S
H504        C521   1.081       .  S
N506       Co520   2.255       .  S
N507        N519   1.304   1_655  A
N507        N523   1.308   1_655  A
N507       Co516   2.024       .  S
C508        N512   1.343       .  A
C508        C522   1.456   1_655  S
C508       C2497   1.449       .  S
C509        C528   1.434       .  S
C509        H513   1.080       .  S
N510        C521   1.388       .  A
N510       Co520   2.270       .  S
C514        N530   1.393       .  A
C514        C526   1.413   1_455  S
C514       C2469   1.523       .  S
Co516      Cl527   2.385   1_655  S
N517        C528   1.399       .  A
C518       C2581   1.437       .  S
Co520      Cl527   2.397       .  S
C528       C2441   1.553       .  S
C531        N549   1.330   1_554  A
C531        C568   1.534       .  S
C531       C2388   1.566       .  S
N532        N549   1.310       .  A
N532        N554   1.303   1_556  A
N532       Co569   1.989       .  S
C533        N558   1.319       .  A
C533        C571   1.423       .  S
C533        H578   1.082       .  S
H534        C575   1.078       .  S
C535        N559   1.340       .  A
C535        C539   1.470       .  S
C535        H564   1.082       .  S
Co536       N554   2.259   1_456  S
Co536       N544   2.205   1_556  S
Co536       N576   2.267   1_455  S
Co536       N552   2.184       .  S
Co536      Cl580   2.343   1_455  S
N537        C575   1.336       .  A
N537        N544   1.320       .  A
N537       Co538   2.085       .  S
Co538       N541   1.985       .  S
Co538       N558   1.979   1_554  S
Co538       N545   2.053   1_554  S
Co538      Cl580   2.418   1_454  S
C539        N577   1.326   1_655  A
C539       C2500   1.453       .  S
N540        N547   1.317       .  A
N540        N570   1.311   1_556  A
N540       Co573   2.052       .  S
N541        N559   1.304   1_455  A
N541        N577   1.300       .  A
N542        C571   1.379       .  A
N542        N552   1.344       .  A
H543        C568   1.077       .  S
N544        N565   1.351       .  A
N545        N563   1.315       .  A
N545        N550   1.312       .  A
C546        N550   1.345       .  A
C546        C574   1.468       .  S
C546       C2598   1.463       .  S
N547        C562   1.319       .  A
N547       Co569   2.043       .  S
C548        N576   1.385   1_455  A
C548        C551   1.524   1_455  S
C548        H582   1.080       .  S
C551        N572   1.330       .  A
C551       C2399   1.555       .  S
N552        N558   1.310       .  A
N553        C579   1.331       .  A
N553        N555   1.310       .  A
N553       Co569   2.030       .  S
N554        C568   1.388       .  A
N555        N583   1.310       .  A
N555       Co573   2.020       .  S
H556        C579   1.077       .  S
H557        C574   1.082       .  S
N559       Co573   2.044   1_554  S
N560        N572   1.309       .  A
N560        N576   1.316       .  A
N560       Co569   1.988       .  S
C561        N565   1.384       .  A
C561        C575   1.449       .  S
C561       C2427   1.550       .  S
C562        C581   1.438   1_556  S
C562        H566   1.074       .  S
N563        C574   1.338       .  A
N563       Co573   2.075   1_455  S
C567        N583   1.338       .  A
C567        C579   1.437       .  S
C567       C2696   1.436       .  S
Co569      Cl580   2.492       .  S
N570        C581   1.348       .  A
C571       C2413   1.500       .  S
Co573      Cl580   2.405       .  S
C581       C2808   1.435   1_554  S
C584        N602   1.335   1_554  A
C584        C621   1.462       .  S
C584       C2822   1.453       .  S
N585        N602   1.314       .  A
N585        N607   1.309   1_556  A
N585       Co622   2.033       .  S
C586        N611   1.314       .  A
C586        C624   1.426       .  S
C586        H631   1.082       .  S
H587        C628   1.080       .  S
C588        N612   1.387   1_655  A
C588        C592   1.534       .  S
C588        H617   1.080       .  S
Co589       N607   2.043       .  S
Co589       N597   2.048       .  S
Co589       N629   2.037   1_654  S
Co589       N605   2.084   1_655  S
Co589      Cl633   2.374   1_655  S
N590        C628   1.340       .  A
N590        N597   1.313   1_455  A
N590       Co591   2.066       .  S
Co591       N594   1.992       .  S
Co591       N611   1.978       .  S
Co591       N598   1.982       .  S
Co591      Cl633   2.498       .  S
C592        N630   1.325   1_655  A
C592       C2371   1.554       .  S
N593        N600   1.304       .  A
N593        N623   1.354   1_556  A
N593       Co626   2.235   1_655  S
N594        N612   1.306       .  A
N594        N630   1.306       .  A
N595        C624   1.357       .  A
N595        N605   1.324       .  A
H596        C621   1.081       .  S
N597        N618   1.302       .  A
N598        N616   1.320       .  A
N598        N603   1.313       .  A
C599        N603   1.328       .  A
C599        C627   1.511   1_554  S
C599       C2343   1.524       .  S
N600        C615   1.312       .  A
N600       Co622   1.987       .  S
C601        N629   1.332       .  A
C601        C604   1.461       .  S
C601        H635   1.078       .  S
C604        N625   1.342       .  A
C604       C2710   1.470       .  S
N605        N611   1.310       .  A
N606        C632   1.313       .  A
N606        N608   1.315       .  A
N606       Co622   1.974   1_455  S
N607        C621   1.332       .  A
N608        N636   1.356       .  A
N608       Co626   2.254       .  S
H609        C632   1.082   1_655  S
H610        C627   1.081       .  S
N612       Co626   2.261   1_554  S
N613        N625   1.311   1_655  A
N613        N629   1.311   1_655  A
N613       Co622   2.037       .  S
C614        N618   1.336       .  A
C614        C628   1.475   1_655  S
C614       C2514   1.478   1_655  S
C615        C634   1.433       .  S
C615        H619   1.081       .  S
N616        C627   1.377   1_554  A
N616       Co626   2.246   1_554  S
C620        N636   1.391       .  A
C620        C632   1.435       .  S
C620       C2357   1.537       .  S
Co622      Cl633   2.445   1_656  S
N623        C634   1.397   1_554  A
C624       C2612   1.443       .  S
Co626      Cl633   2.317   1_556  S
C634       C2332   1.546       .  S
C637        N655   1.316   1_556  A
C637        C674   1.532       .  S
C637       C2231   1.537       .  S
N638        N655   1.297       .  A
N638        N660   1.310   1_554  A
N638       Co675   1.947       .  S
C639        N664   1.324       .  A
C639        C677   1.431       .  S
C639        H684   1.082       .  S
H640        C681   1.081       .  S
C641        N665   1.348       .  A
C641        C645   1.477       .  S
C641        H670   1.081       .  S
Co642       N660   2.255       .  S
Co642       N650   2.193       .  S
Co642       N682   2.255   1_556  S
Co642       N658   2.226       .  S
Co642      Cl686   2.406   1_556  S
N643        C681   1.328       .  A
N643        N650   1.313       .  A
N643       Co644   2.052       .  S
Co644       N647   2.013       .  S
Co644       N664   2.006       .  S
Co644       N651   2.071   1_556  S
Co644      Cl686   2.394   1_556  S
C645        N683   1.330       .  A
C645       C2276   1.449       .  S
N646        N653   1.314       .  A
N646        N676   1.302       .  A
N646       Co679   2.003       .  S
N647        N665   1.306       .  A
N647        N683   1.303       .  A
N648        C677   1.386   1_554  A
N648        N658   1.350   1_554  A
H649        C674   1.080       .  S
N650        N671   1.351       .  A
N651        N669   1.310       .  A
N651        N656   1.317       .  A
C652        N656   1.349       .  A
C652        C680   1.455       .  S
C652       C2301   1.472       .  S
N653        C668   1.336       .  A
N653       Co675   2.054       .  S
C654        N682   1.389       .  A
C654        C657   1.534       .  S
C654        H688   1.081       .  S
C657        N678   1.318       .  A
C657       C2248   1.550       .  S
N658        N664   1.317       .  A
N659        C685   1.327       .  A
N659        N661   1.313       .  A
N659       Co675   2.040       .  S
N660        C674   1.388       .  A
N661        N689   1.312       .  A
N661       Co679   2.022       .  S
H662        C685   1.069       .  S
H663        C680   1.081       .  S
N665       Co679   2.068   1_556  S
N666        N678   1.296       .  A
N666        N682   1.313       .  A
N666       Co675   1.977       .  S
C667        N671   1.385       .  A
C667        C681   1.443       .  S
C667       C2259   1.541       .  S
C668        C687   1.452       .  S
C668        H672   1.075       .  S
N669        C680   1.335       .  A
N669       Co679   2.029       .  S
C673        N689   1.344       .  A
C673        C685   1.436       .  S
C673       C2287   1.435       .  S
Co675      Cl686   2.450       .  S
N676        C687   1.333       .  A
C677       C2220   1.525       .  S
Co679      Cl686   2.452       .  S
C687       C2315   1.430       .  S
C690        N708   1.327       .  A
C690        C727   1.471       .  S
C690       C2273   1.453       .  S
N691        N708   1.299       .  A
N691        N713   1.313       .  A
N691       Co728   1.984   1_565  S
C692        N717   1.378       .  A
C692        C730   1.520       .  S
C692        H737   1.081       .  S
H693        C734   1.081       .  S
C694        N718   1.320       .  A
C694        C698   1.421       .  S
C694        H723   1.082       .  S
Co695       N713   2.091       .  S
Co695       N703   1.973       .  S
Co695       N735   2.064   1_565  S
Co695       N711   2.034   1_565  S
Co695      Cl739   2.425   1_565  S
N696        C734   1.381       .  A
N696        N703   1.325       .  A
N696       Co697   2.266   1_565  S
Co697       N700   2.214       .  S
Co697       N717   2.223       .  S
Co697       N704   2.277       .  S
Co697      Cl739   2.402       .  S
C698        N736   1.379       .  A
C698       C2119   1.499       .  S
N699        N706   1.305       .  A
N699        N729   1.300       .  A
N699       Co732   2.003       .  S
N700        N718   1.316       .  A
N700        N736   1.345       .  A
N701        C730   1.329   1_565  A
N701        N711   1.309   1_565  A
H702        C727   1.079       .  S
N703        N724   1.308       .  A
N704        N722   1.300       .  A
N704        N709   1.361       .  A
C705        N709   1.409       .  A
C705        C733   1.417       .  S
C705       C2147   1.568       .  S
N706        C721   1.357       .  A
N706       Co728   2.075       .  S
C707        N735   1.336       .  A
C707        C710   1.456       .  S
C707        H741   1.074   1_545  S
C710        N731   1.336       .  A
C710       C2192   1.449       .  S
N711        N717   1.319       .  A
N712        C738   1.337       .  A
N712        N714   1.304       .  A
N712       Co728   2.004       .  S
N713        C727   1.349       .  A
N714        N742   1.314       .  A
N714       Co732   2.062       .  S
H715        C738   1.079       .  S
H716        C733   1.076       .  S
N718       Co732   1.980       .  S
N719        N731   1.306       .  A
N719        N735   1.310       .  A
N719       Co728   2.022       .  S
C720        N724   1.324       .  A
C720        C734   1.517       .  S
C720       C2161   1.522       .  S
C721        C740   1.477       .  S
C721        H725   1.081   1_545  S
N722        C733   1.310       .  A
N722       Co732   1.956       .  S
C726        N742   1.345       .  A
C726        C738   1.448       .  S
C726       C2175   1.437       .  S
Co728      Cl739   2.472       .  S
N729        C740   1.327       .  A
C730       C2136   1.541       .  S
Co732      Cl739   2.373       .  S
C740       C2203   1.462       .  S
C743        N761   1.350       .  A
C743        C780   1.453       .  S
C743       C2178   1.449       .  S
N744        N761   1.320       .  A
N744        N766   1.309       .  A
N744       Co781   2.076       .  S
C745        N770   1.331       .  A
C745        C783   1.462       .  S
C745        H790   1.076       .  S
H746        C787   1.067       .  S
C747        N771   1.381   1_556  A
C747        C751   1.519       .  S
C747        H776   1.081       .  S
Co748       N766   2.020       .  S
Co748       N756   2.025       .  S
Co748       N788   2.054       .  S
Co748       N764   2.018   1_556  S
Co748      Cl792   2.450       .  S
N749        C787   1.309       .  A
N749        N756   1.301   1_554  A
N749       Co750   1.980       .  S
Co750       N753   2.105       .  S
Co750       N770   2.092       .  S
Co750       N757   1.947       .  S
Co750      Cl792   2.400   1_554  S
C751        N789   1.337   1_556  A
C751       C2035   1.563       .  S
N752        N759   1.296       .  A
N752        N782   1.365       .  A
N752       Co785   2.277   1_556  S
N753        N771   1.321       .  A
N753        N789   1.319       .  A
N754        C783   1.336       .  A
N754        N764   1.318       .  A
H755        C780   1.079       .  S
N756        N777   1.317       .  A
N757        N775   1.316       .  A
N757        N762   1.306       .  A
C758        N762   1.315       .  A
C758        C786   1.529       .  S
C758       C2063   1.533       .  S
N759        C774   1.295       .  A
N759       Co781   1.882       .  S
C760        N788   1.343       .  A
C760        C763   1.463       .  S
C760        H794   1.079       .  S
C763        N784   1.324       .  A
C763       C2105   1.432       .  S
N764        N770   1.319       .  A
N765        C791   1.331       .  A
N765        N767   1.327       .  A
N765       Co781   2.037       .  S
N766        C780   1.325       .  A
N767        N795   1.349   1_556  A
N767       Co785   2.246   1_556  S
H768        C791   1.080       .  S
H769        C786   1.081       .  S
N771       Co785   2.214       .  S
N772        N784   1.302       .  A
N772        N788   1.304       .  A
N772       Co781   1.961       .  S
C773        N777   1.345       .  A
C773        C787   1.424   1_556  S
C773       C2094   1.434       .  S
C774        C793   1.397       .  S
C774        H778   1.083       .  S
N775        C786   1.386       .  A
N775       Co785   2.268       .  S
C779        N795   1.383       .  A
C779        C791   1.436   1_554  S
C779       C2024   1.526       .  S
Co781      Cl792   2.382       .  S
N782        C793   1.411       .  A
C783       C2077   1.467       .  S
Co785      Cl792   2.426   1_554  S
C793       C2049   1.548       .  S
C796        N814   1.322       .  A
C796        C833   1.451       .  S
C796       C2290   1.436       .  S
N797        N814   1.309       .  A
N797        N819   1.309       .  A
N797       Co834   1.993       .  S
C798        N823   1.333       .  A
C798        C836   1.449       .  S
C798        H843   1.082       .  S
H799        C840   1.078       .  S
C800        N824   1.390       .  A
C800        C804   1.532       .  S
C800        H829   1.081       .  S
Co801       N819   2.049   1_545  S
Co801       N809   2.037   1_545  S
Co801       N841   2.047       .  S
Co801       N817   2.053       .  S
Co801      Cl845   2.423       .  S
N802        C840   1.331       .  A
N802        N809   1.312   1_545  A
N802       Co803   2.047       .  S
Co803       N806   1.990       .  S
Co803       N823   2.038       .  S
Co803       N810   2.038       .  S
Co803      Cl845   2.445       .  S
C804        N842   1.326   1_565  A
C804       C1979   1.551       .  S
N805        N812   1.314       .  A
N805        N835   1.352       .  A
N805       Co838   2.255   1_565  S
N806        N824   1.316   1_545  A
N806        N842   1.313       .  A
N807        C836   1.344       .  A
N807        N817   1.318       .  A
H808        C833   1.079       .  S
N809        N830   1.309       .  A
N810        N828   1.322       .  A
N810        N815   1.315       .  A
C811        N815   1.338       .  A
C811        C839   1.519       .  S
C811       C1937   1.545       .  S
N812        C827   1.314       .  A
N812       Co834   1.979       .  S
C813        N841   1.336       .  A
C813        C816   1.454       .  S
C813        H847   1.081       .  S
C816        N837   1.327       .  A
C816       C1996   1.428       .  S
N817        N823   1.314       .  A
N818        C844   1.307       .  A
N818        N820   1.307   1_565  A
N818       Co834   1.929       .  S
N819        C833   1.335       .  A
N820        N848   1.358       .  A
N820       Co838   2.270       .  S
H821        C844   1.083       .  S
H822        C839   1.081       .  S
N824       Co838   2.265   1_565  S
N825        N837   1.309   1_565  A
N825        N841   1.314   1_565  A
N825       Co834   2.015       .  S
C826        N830   1.340       .  A
C826        C840   1.459   1_565  S
C826       C2007   1.444       .  S
C827        C846   1.422       .  S
C827        H831   1.081       .  S
N828        C839   1.383       .  A
N828       Co838   2.239       .  S
C832        N848   1.400       .  A
C832        C844   1.405   1_545  S
C832       C1965   1.530       .  S
Co834      Cl845   2.447   1_565  S
N835        C846   1.395       .  A
C836       C2080   1.452       .  S
Co838      Cl845   2.406       .  S
C846       C1951   1.535       .  S
C849        N867   1.347       .  A
C849        C886   1.424       .  S
C849       C1993   1.422       .  S
N850        N867   1.312       .  A
N850        N872   1.308       .  A
N850       Co887   2.040       .  S
C851        N876   1.405       .  A
C851        C889   1.563       .  S
C851        H896   1.079       .  S
H852        C893   1.081   1_565  S
C853        N877   1.315       .  A
C853        C857   1.414   1_556  S
C853        H882   1.080       .  S
Co854       N872   1.987       .  S
Co854       N862   1.966       .  S
Co854       N894   2.034   1_554  S
Co854       N870   1.977   1_554  S
Co854      Cl898   2.460   1_554  S
N855        C893   1.384       .  A
N855        N862   1.317       .  A
N855       Co856   2.280   1_554  S
Co856       N859   2.243   1_545  S
Co856       N876   2.321       .  S
Co856       N863   2.196       .  S
Co856      Cl898   2.363       .  S
C857        N895   1.390       .  A
C857       C1884   1.520       .  S
N858        N865   1.316   1_565  A
N858        N888   1.318       .  A
N858       Co891   2.078   1_554  S
N859        N877   1.314       .  A
N859        N895   1.354   1_556  A
N860        C889   1.328       .  A
N860        N870   1.311       .  A
H861        C886   1.081       .  S
N862        N883   1.308       .  A
N863        N881   1.323   1_545  A
N863        N868   1.349       .  A
C864        N868   1.381       .  A
C864        C892   1.440   1_545  S
C864       C1909   1.536       .  S
N865        C880   1.331   1_545  A
N865       Co887   2.060       .  S
C866        N894   1.299       .  A
C866        C869   1.418       .  S
C866        H900   1.043       .  S
C869        N890   1.345       .  A
C869       C2091   1.418       .  S
N870        N876   1.296       .  A
N871        C897   1.346       .  A
N871        N873   1.300       .  A
N871       Co887   2.058   1_556  S
N872        C886   1.325       .  A
N873        N901   1.295   1_545  A
N873       Co891   1.968   1_545  S
H874        C897   1.080       .  S
H875        C892   1.078       .  S
N877       Co891   1.960       .  S
N878        N890   1.315       .  A
N878        N894   1.312       .  A
N878       Co887   2.012   1_556  S
C879        N883   1.325       .  A
C879        C893   1.527       .  S
C879       C1923   1.540       .  S
C880        C899   1.466       .  S
C880        H884   1.077   1_565  S
N881        C892   1.333       .  A
N881       Co891   2.082       .  S
C885        N901   1.322   1_545  A
C885        C897   1.478       .  S
C885       C2189   1.467       .  S
Co887      Cl898   2.428   1_554  S
N888        C899   1.353       .  A
C889       C1895   1.609       .  S
Co891      Cl898   2.421   1_565  S
C899       C2304   1.494       .  S
C902        N920   1.325       .  A
C902        C939   1.513   1_556  S
C902       C1839   1.522   1_556  S
N903        N920   1.307       .  A
N903        N925   1.318   1_556  A
N903       Co940   1.973       .  S
C904        N929   1.324       .  A
C904        C942   1.424       .  S
C904        H949   1.082       .  S
H905        C946   1.081       .  S
C906        N930   1.341   1_565  A
C906        C910   1.453       .  S
C906        H935   1.081       .  S
Co907       N925   2.238   1_545  S
Co907       N915   2.260       .  S
Co907       N947   2.273   1_554  S
Co907       N923   2.241       .  S
Co907      Cl951   2.326   1_554  S
N908        C946   1.321       .  A
N908        N915   1.315       .  A
N908       Co909   2.007       .  S
Co909       N912   2.033       .  S
Co909       N929   1.991       .  S
Co909       N916   2.029       .  S
Co909      Cl951   2.453   1_554  S
C910        N948   1.337   1_565  A
C910       C2010   1.442       .  S
N911        N918   1.309       .  A
N911        N941   1.318       .  A
N911       Co944   2.075   1_565  S
N912        N930   1.314       .  A
N912        N948   1.305       .  A
N913        C942   1.393       .  A
N913        N923   1.353       .  A
H914        C939   1.081       .  S
N915        N936   1.359   1_545  A
N916        N934   1.307   1_554  A
N916        N921   1.316       .  A
C917        N921   1.340   1_556  A
C917        C945   1.456       .  S
C917       C2108   1.450       .  S
N918        C933   1.321       .  A
N918       Co940   1.987       .  S
C919        N947   1.387       .  A
C919        C922   1.534       .  S
C919        H953   1.081       .  S
C922        N943   1.322       .  A
C922       C1853   1.551       .  S
N923        N929   1.310       .  A
N924        C950   1.346       .  A
N924        N926   1.311       .  A
N924       Co940   2.072   1_545  S
N925        C939   1.377       .  A
N926        N954   1.299       .  A
N926       Co944   2.050       .  S
H927        C950   1.079   1_565  S
H928        C945   1.081       .  S
N930       Co944   2.047   1_554  S
N931        N943   1.306       .  A
N931        N947   1.310       .  A
N931       Co940   1.991   1_545  S
C932        N936   1.395       .  A
C932        C946   1.441   1_565  S
C932       C1867   1.555       .  S
C933        C952   1.433       .  S
C933        H937   1.082       .  S
N934        C945   1.328       .  A
N934       Co944   2.033       .  S
C938        N954   1.333       .  A
C938        C950   1.481       .  S
C938       C2206   1.480       .  S
Co940      Cl951   2.521   1_565  S
N941        C952   1.353       .  A
C942       C1828   1.530       .  S
Co944      Cl951   2.365       .  S
C952       C2318   1.440       .  S
C955        N973   1.344       .  A
C955        C992   1.454       .  S
C955       C1769   1.467       .  S
N956        N973   1.320       .  A
N956        N978   1.316       .  A
N956       Co993   2.048   1_655  S
C957        N982   1.377       .  A
C957        C995   1.517   1_455  S
C957       H1002   1.080       .  S
H958        C999   1.081       .  S
C959        N983   1.330       .  A
C959        C963   1.441       .  S
C959        H988   1.081       .  S
Co960       N978   2.062       .  S
Co960       N968   1.977       .  S
Co960      N1000   2.004       .  S
Co960       N976   2.069       .  S
Co960     Cl1004   2.412   1_655  S
N961        C999   1.379       .  A
N961        N968   1.313       .  A
N961       Co962   2.212   1_655  S
Co962       N965   2.249       .  S
Co962       N982   2.200       .  S
Co962       N969   2.236       .  S
Co962     Cl1004   2.415       .  S
C963       N1001   1.382       .  A
C963       C1741   1.529       .  S
N964        N971   1.306       .  A
N964        N994   1.319       .  A
N964       Co997   2.019       .  S
N965        N983   1.327       .  A
N965       N1001   1.349       .  A
N966        C995   1.335       .  A
N966        N976   1.313       .  A
H967        C992   1.077       .  S
N968        N989   1.302       .  A
N969        N987   1.301       .  A
N969        N974   1.357       .  A
C970        N974   1.398       .  A
C970        C998   1.409       .  S
C970       C1713   1.535       .  S
N971        C986   1.325       .  A
N971       Co993   2.023       .  S
C972       N1000   1.333       .  A
C972        C975   1.436       .  S
C972       H1006   1.079       .  S
C975        N996   1.346   1_655  A
C975       C1797   1.440       .  S
N976        N982   1.321   1_655  A
N977       C1003   1.329       .  A
N977        N979   1.312       .  A
N977       Co993   2.024       .  S
N978        C992   1.328       .  A
N979       N1007   1.316       .  A
N979       Co997   2.099       .  S
H980       C1003   1.081       .  S
H981        C998   1.077       .  S
N983       Co997   2.033       .  S
N984        N996   1.309       .  A
N984       N1000   1.305   1_455  A
N984       Co993   2.036       .  S
C985        N989   1.320       .  A
C985        C999   1.515       .  S
C985       C1755   1.518       .  S
C986       C1005   1.447       .  S
C986        H990   1.081       .  S
N987        C998   1.304       .  A
N987       Co997   1.938       .  S
C991       N1007   1.354       .  A
C991       C1003   1.467       .  S
C991       C1783   1.484       .  S
Co993     Cl1004   2.434       .  S
N994       C1005   1.343       .  A
C995       C1727   1.551       .  S
Co997     Cl1004   2.410       .  S
C1005      C1814   1.445       .  S
C1008      N1026   1.349       .  A
C1008      C1045   1.445       .  S
C1008      C1772   1.464       .  S
N1009      N1026   1.319       .  A
N1009      N1031   1.308       .  A
N1009     Co1046   2.048   1_565  S
C1010      N1035   1.393       .  A
C1010      C1048   1.543       .  S
C1010      H1055   1.081       .  S
H1011      C1052   1.081       .  S
C1012      N1036   1.314       .  A
C1012      C1016   1.412       .  S
C1012      H1041   1.081       .  S
Co1013     N1031   2.017       .  S
Co1013     N1021   1.989       .  S
Co1013     N1053   2.063   1_565  S
Co1013     N1029   1.979   1_565  S
Co1013    Cl1057   2.400   1_565  S
N1014      C1052   1.379       .  A
N1014      N1021   1.323       .  A
N1014     Co1015   2.253   1_565  S
Co1015     N1018   2.325       .  S
Co1015     N1035   2.282       .  S
Co1015     N1022   2.251       .  S
Co1015    Cl1057   2.397       .  S
C1016      N1054   1.409   1_545  A
C1016      C1629   1.560   1_545  S
N1017      N1024   1.309       .  A
N1017      N1047   1.309       .  A
N1017     Co1050   2.039       .  S
N1018      N1036   1.313       .  A
N1018      N1054   1.366   1_545  A
N1019      C1048   1.320       .  A
N1019      N1029   1.311       .  A
H1020      C1045   1.081       .  S
N1021      N1042   1.310       .  A
N1022      N1040   1.308       .  A
N1022      N1027   1.355       .  A
C1023      N1027   1.398       .  A
C1023      C1051   1.431       .  S
C1023      C1615   1.552       .  S
N1024      C1039   1.334       .  A
N1024     Co1046   2.015       .  S
C1025      N1053   1.324       .  A
C1025      C1028   1.447       .  S
C1025      H1059   1.075       .  S
C1028      N1049   1.341       .  A
C1028      C1699   1.431       .  S
N1029      N1035   1.311       .  A
N1030      C1056   1.338       .  A
N1030      N1032   1.306       .  A
N1030     Co1046   2.044       .  S
N1031      C1045   1.326       .  A
N1032      N1060   1.310       .  A
N1032     Co1050   2.026       .  S
H1033      C1056   1.080       .  S
H1034      C1051   1.075       .  S
N1036     Co1050   1.947       .  S
N1037      N1049   1.316       .  A
N1037      N1053   1.311       .  A
N1037     Co1046   2.014       .  S
C1038      N1042   1.328       .  A
C1038      C1052   1.517       .  S
C1038      C1660   1.528       .  S
C1039      C1058   1.450       .  S
C1039      H1043   1.081       .  S
N1040      C1051   1.321       .  A
N1040     Co1050   2.011       .  S
C1044      N1060   1.333       .  A
C1044      C1056   1.467       .  S
C1044      C1671   1.457       .  S
Co1046    Cl1057   2.474       .  S
N1047      C1058   1.333       .  A
C1048      C1643   1.562       .  S
Co1050    Cl1057   2.404       .  S
C1058      C1688   1.425       .  S
C1061      N1079   1.329       .  A
C1061      C1098   1.470       .  S
C1061      C1786   1.456       .  S
N1062      N1079   1.295       .  A
N1062      N1084   1.307       .  A
N1062     Co1099   2.000       .  S
C1063      N1088   1.323       .  A
C1063      C1101   1.430       .  S
C1063      H1108   1.074       .  S
H1064      C1105   1.079       .  S
C1065      N1089   1.380   1_565  A
C1065      C1069   1.519   1_565  S
C1065      H1094   1.081       .  S
Co1066     N1084   2.056   1_545  S
Co1066     N1074   2.028       .  S
Co1066     N1106   2.061       .  S
Co1066     N1082   2.038       .  S
Co1066    Cl1110   2.463       .  S
N1067      C1105   1.309       .  A
N1067      N1074   1.310       .  A
N1067     Co1068   2.007       .  S
Co1068     N1071   1.960       .  S
Co1068     N1088   2.037       .  S
Co1068     N1075   2.002       .  S
Co1068    Cl1110   2.405       .  S
C1069      N1107   1.318       .  A
C1069      C1562   1.520       .  S
N1070      N1077   1.321       .  A
N1070      N1100   1.350       .  A
N1070     Co1103   2.232   1_565  S
N1071      N1089   1.317       .  A
N1071      N1107   1.309       .  A
N1072      C1101   1.346       .  A
N1072      N1082   1.313       .  A
H1073      C1098   1.081       .  S
N1074      N1095   1.321       .  A
N1075      N1093   1.311       .  A
N1075      N1080   1.307       .  A
C1076      N1080   1.323       .  A
C1076      C1104   1.530       .  S
C1076      C1534   1.545       .  S
N1077      C1092   1.320       .  A
N1077     Co1099   2.008       .  S
C1078      N1106   1.332       .  A
C1078      C1081   1.455       .  S
C1078      H1112   1.082       .  S
C1081      N1102   1.333       .  A
C1081      C1604   1.444       .  S
N1082      N1088   1.314       .  A
N1083      C1109   1.301       .  A
N1083      N1085   1.308   1_565  A
N1083     Co1099   1.981       .  S
N1084      C1098   1.349       .  A
N1085      N1113   1.357       .  A
N1085     Co1103   2.229       .  S
H1086      C1109   1.079       .  S
H1087      C1104   1.081       .  S
N1089     Co1103   2.253       .  S
N1090      N1102   1.319       .  A
N1090      N1106   1.314       .  A
N1090     Co1099   2.041   1_545  S
C1091      N1095   1.345       .  A
C1091      C1105   1.429       .  S
C1091      C1590   1.429       .  S
C1092      C1111   1.428       .  S
C1092      H1096   1.079       .  S
N1093      C1104   1.384       .  A
N1093     Co1103   2.241       .  S
C1097      N1113   1.398       .  A
C1097      C1109   1.426   1_545  S
C1097      C1517   1.544       .  S
Co1099    Cl1110   2.394   1_565  S
N1100      C1111   1.384       .  A
C1101      C1573   1.432       .  S
Co1103    Cl1110   2.414       .  S
C1111      C1545   1.520       .  S
C1114      N1132   1.320       .  A
C1114      C1151   1.459       .  S
C1114      C1674   1.434       .  S
N1115      N1132   1.302       .  A
N1115      N1137   1.302       .  A
N1115     Co1152   1.987       .  S
C1116      N1141   1.313       .  A
C1116      C1154   1.416       .  S
C1116      H1161   1.082       .  S
H1117      C1158   1.068       .  S
C1118      N1142   1.398       .  A
C1118      C1122   1.551       .  S
C1118      H1147   1.081       .  S
Co1119     N1137   2.020       .  S
Co1119     N1127   2.050       .  S
Co1119     N1159   2.068   1_655  S
Co1119     N1135   2.010   1_655  S
Co1119    Cl1163   2.488       .  S
N1120      C1158   1.322       .  A
N1120      N1127   1.318       .  A
N1120     Co1121   2.057   1_655  S
Co1121     N1124   1.928       .  S
Co1121     N1141   1.971       .  S
Co1121     N1128   1.995       .  S
Co1121    Cl1163   2.384   1_455  S
C1122      N1160   1.314   1_655  A
C1122      C1433   1.564       .  S
N1123      N1130   1.321       .  A
N1123      N1153   1.356       .  A
N1123     Co1156   2.252       .  S
N1124      N1142   1.300   1_455  A
N1124      N1160   1.300       .  A
N1125      C1154   1.344       .  A
N1125      N1135   1.315       .  A
H1126      C1151   1.081       .  S
N1127      N1148   1.319       .  A
N1128      N1146   1.322       .  A
N1128      N1133   1.313       .  A
C1129      N1133   1.327       .  A
C1129      C1157   1.526       .  S
C1129      C1461   1.541       .  S
N1130      C1145   1.320       .  A
N1130     Co1152   2.034       .  S
C1131      N1159   1.342       .  A
C1131      C1134   1.473       .  S
C1131      H1165   1.081       .  S
C1134      N1155   1.332       .  A
C1134      C1489   1.445       .  S
N1135      N1141   1.306       .  A
N1136      C1162   1.309       .  A
N1136      N1138   1.305       .  A
N1136     Co1152   1.909       .  S
N1137      C1151   1.336       .  A
N1138      N1166   1.358   1_655  A
N1138     Co1156   2.257       .  S
H1139      C1162   1.083       .  S
H1140      C1157   1.081       .  S
N1142     Co1156   2.277       .  S
N1143      N1155   1.304   1_655  A
N1143      N1159   1.311   1_655  A
N1143     Co1152   2.029       .  S
C1144      N1148   1.348       .  A
C1144      C1158   1.432       .  S
C1144      C1503   1.432       .  S
C1145      C1164   1.432       .  S
C1145      H1149   1.077       .  S
N1146      C1157   1.384       .  A
N1146     Co1156   2.278   1_455  S
C1150      N1166   1.399       .  A
C1150      C1162   1.395   1_455  S
C1150      C1478   1.522       .  S
Co1152    Cl1163   2.367       .  S
N1153      C1164   1.393       .  A
C1154      C1576   1.408       .  S
Co1156    Cl1163   2.414       .  S
C1164      C1447   1.548       .  S
C1167      N1185   1.330       .  A
C1167      C1204   1.472       .  S
C1167      C1800   1.465       .  S
N1168      N1185   1.302       .  A
N1168      N1190   1.299   1_565  A
N1168     Co1205   1.996   1_565  S
C1169      N1194   1.335       .  A
C1169      C1207   1.447   1_655  S
C1169      H1214   1.075       .  S
H1170      C1211   1.078       .  S
C1171      N1195   1.384   1_565  A
C1171      C1175   1.524   1_565  S
C1171      H1200   1.081       .  S
Co1172     N1190   2.035       .  S
Co1172     N1180   2.046   1_455  S
Co1172     N1212   2.063       .  S
Co1172     N1188   2.009   1_455  S
Co1172    Cl1216   2.422       .  S
N1173      C1211   1.334       .  A
N1173      N1180   1.317       .  A
N1173     Co1174   2.058       .  S
Co1174     N1177   1.963       .  S
Co1174     N1194   2.032       .  S
Co1174     N1181   2.015       .  S
Co1174    Cl1216   2.475   1_655  S
C1175      N1213   1.320       .  A
C1175      C1405   1.535   1_545  S
N1176      N1183   1.320       .  A
N1176      N1206   1.353   1_455  A
N1176     Co1209   2.246   1_565  S
N1177      N1195   1.314       .  A
N1177      N1213   1.310       .  A
N1178      C1207   1.336       .  A
N1178      N1188   1.305   1_455  A
H1179      C1204   1.080   1_655  S
N1180      N1201   1.313       .  A
N1181      N1199   1.319       .  A
N1181      N1186   1.309       .  A
C1182      N1186   1.328       .  A
C1182      C1210   1.537   1_655  S
C1182      C1422   1.569   1_655  S
N1183      C1198   1.314       .  A
N1183     Co1205   1.998   1_565  S
C1184      N1212   1.334       .  A
C1184      C1187   1.478       .  S
C1184      H1218   1.082       .  S
C1187      N1208   1.341       .  A
C1187      C1587   1.468       .  S
N1188      N1194   1.306       .  A
N1189      C1215   1.306       .  A
N1189      N1191   1.301       .  A
N1189     Co1205   1.926       .  S
N1190      C1204   1.342   1_545  A
N1191      N1219   1.359       .  A
N1191     Co1209   2.247       .  S
H1192      C1215   1.073   1_565  S
H1193      C1210   1.081       .  S
N1195     Co1209   2.261   1_655  S
N1196      N1208   1.310       .  A
N1196      N1212   1.307       .  A
N1196     Co1205   2.025       .  S
C1197      N1201   1.342       .  A
C1197      C1211   1.445       .  S
C1197      C1685   1.429       .  S
C1198      C1217   1.424       .  S
C1198      H1202   1.077       .  S
N1199      C1210   1.391   1_655  A
N1199     Co1209   2.279   1_655  S
C1203      N1219   1.401       .  A
C1203      C1215   1.401       .  S
C1203      C1377   1.532       .  S
Co1205    Cl1216   2.392       .  S
N1206      C1217   1.389   1_655  A
C1207      C1492   1.433       .  S
Co1209    Cl1216   2.386       .  S
C1217      C1391   1.527       .  S
C1220      N1238   1.356       .  A
C1220      C1257   1.427       .  S
C1220      C1601   1.448       .  S
N1221      N1238   1.323       .  A
N1221      N1243   1.313       .  A
N1221     Co1258   2.087   1_455  S
C1222      N1247   1.391   1_655  A
C1222      C1260   1.540       .  S
C1222      H1267   1.081       .  S
H1223      C1264   1.081   1_565  S
C1224      N1248   1.322       .  A
C1224      C1228   1.424       .  S
C1224      H1253   1.081   1_455  S
Co1225     N1243   2.007       .  S
Co1225     N1233   1.967       .  S
Co1225     N1265   2.035       .  S
Co1225     N1241   1.990       .  S
Co1225    Cl1269   2.472       .  S
N1226      C1264   1.384       .  A
N1226      N1233   1.317       .  A
N1226     Co1227   2.263       .  S
Co1227     N1230   2.268   1_545  S
Co1227     N1247   2.271       .  S
Co1227     N1234   2.229   1_455  S
Co1227    Cl1269   2.347       .  S
C1228      N1266   1.389       .  A
C1228      C1363   1.524       .  S
N1229      N1236   1.309   1_665  A
N1229      N1259   1.311   1_655  A
N1229     Co1262   2.046       .  S
N1230      N1248   1.318       .  A
N1230      N1266   1.352       .  A
N1231      C1260   1.325   1_455  A
N1231      N1241   1.307       .  A
H1232      C1257   1.080       .  S
N1233      N1254   1.305       .  A
N1234      N1252   1.302       .  A
N1234      N1239   1.356       .  A
C1235      N1239   1.399       .  A
C1235      C1263   1.447   1_545  S
C1235      C1324   1.566       .  S
N1236      C1251   1.331       .  A
N1236     Co1258   2.024   1_455  S
C1237      N1265   1.323       .  A
C1237      C1240   1.451   1_455  S
C1237      H1271   1.070       .  S
C1240      N1261   1.337       .  A
C1240      C1506   1.433       .  S
N1241      N1247   1.306       .  A
N1242      C1268   1.344       .  A
N1242      N1244   1.307       .  A
N1242     Co1258   2.053       .  S
N1243      C1257   1.322       .  A
N1244      N1272   1.306       .  A
N1244     Co1262   2.020   1_545  S
H1245      C1268   1.080       .  S
H1246      C1263   1.076       .  S
N1248     Co1262   1.970   1_455  S
N1249      N1261   1.307       .  A
N1249      N1265   1.309   1_655  A
N1249     Co1258   2.024       .  S
C1250      N1254   1.323       .  A
C1250      C1264   1.527       .  S
C1250      C1349   1.542       .  S
C1251      C1270   1.459   1_545  S
C1251      H1255   1.077       .  S
N1252      C1263   1.317   1_545  A
N1252     Co1262   2.023   1_545  S
C1256      N1272   1.322       .  A
C1256      C1268   1.465       .  S
C1256      C1702   1.438       .  S
Co1258    Cl1269   2.425   1_655  S
N1259      C1270   1.343       .  A
C1260      C1335   1.568       .  S
Co1262    Cl1269   2.415   1_665  S
C1270      C1811   1.471       .  S
C1273      C1274   1.407       .  D
C1273      C2430   1.569       .  S
C1273      C2483   1.577       .  S
C1274      C1419   1.576       .  S
C1274      C1475   1.572       .  S
C1275      C1276   1.411       .  D
C1275      C1870   1.588       .  S
C1275      C1982   1.573       .  S
C1276      C1408   1.578       .  S
C1276      C1632   1.573       .  S
C1277      C1278   1.404       .  D
C1277      C2374   1.576       .  S
C1277      C2472   1.563       .  S
C1278      C1394   1.549       .  S
C1278      C1730   1.566       .  S
C1279      C1280   1.406       .  D
C1279      C1926   1.557       .  S
C1279      C1968   1.570       .  S
C1280      C1380   1.574       .  S
C1280      C1559   1.562       .  S
C1281      C1282   1.406       .  D
C1281      C2878   1.565       .  S
C1281      C3253   1.565       .  S
C1282      C1464   1.569       .  S
C1282      C1531   1.574       .  S
C1283      C1284   1.400       .  D
C1283      C2990   1.565       .  S
C1283      C3270   1.541       .  S
C1284      C1450   1.565       .  S
C1284      C1618   1.580       .  S
C1285      C1286   1.407       .  D
C1285      C2864   1.586       .  S
C1285      C3060   1.613       .  S
C1286      C1548   1.556       .  S
C1286      C1716   1.584       .  S
C1287      C1288   1.402       .  D
C1287      C1912   1.572       .  S
C1287      C2133   1.573       .  S
C1288      C1352   1.563       .  S
C1288      C1520   1.568       .  S
C1289      C1290   1.399       .  D
C1289      C1898   1.601       .  S
C1289      C2038   1.593       .  S
C1290      C2416   1.546       .  S
C1290      C2570   1.556       .  S
C1291      C1292   1.400       .  D
C1291      C2346   1.555       .  S
C1291      C2556   1.560       .  S
C1292      C1881   1.560       .  S
C1292      C2217   1.553       .  S
C1293      C1294   1.409       .  D
C1293      C3074   1.575       .  S
C1293      C3172   1.609       .  S
C1294      C1954   1.574       .  S
C1294      C2245   1.553       .  S
C1295      C1296   1.398       .  D
C1295      C3158   1.564       .  S
C1295      C3242   1.566       .  S
C1296      C1940   1.574       .  S
C1296      C2066   1.566       .  S
C1297      C1298   1.403       .  D
C1297      C2934   1.537       .  S
C1297      C3228   1.550       .  S
C1298      C2052   1.582       .  S
C1298      C2150   1.588       .  S
C1299      C1300   1.412       .  D
C1299      C2402   1.586       .  S
C1299      C2640   1.591       .  S
C1300      C1338   1.600       .  S
C1300      C1436   1.589       .  S
C1301      C1302   1.414       .  D
C1301      C1825   1.564       .  S
C1301      C2021   1.562       .  S
C1302      C2385   1.582       .  S
C1302      C2724   1.589       .  S
C1303      C1304   1.412       .  D
C1303      C2850   1.589       .  S
C1303      C3144   1.585       .  S
C1304      C2458   1.558       .  S
C1304      C2542   1.584       .  S
C1305      C1306   1.404       .  D
C1305      C3004   1.561       .  S
C1305      C3130   1.542       .  S
C1306      C2444   1.559       .  S
C1306      C2752   1.576       .  S
C1307      C1308   1.407       .  D
C1307      C2836   1.550       .  S
C1307      C2920   1.580       .  S
C1308      C2528   1.552       .  S
C1308      C2626   1.575       .  S
C1309      C1310   1.413       .  D
C1309      C1366   1.561       .  S
C1309      C1744   1.557       .  S
C1310      C2360   1.578       .  S
C1310      C2651   1.552       .  S
C1311      C1312   1.408       .  D
C1311      C1856   1.568       .  S
C1311      C2122   1.539       .  S
C1312      C1321   1.567       .  S
C1312      C1646   1.585       .  S
C1313      C1314   1.405       .  D
C1313      C1842   1.547       .  S
C1313      C2234   1.572       .  S
C1314      C2329   1.571       .  S
C1314      C2738   1.560   1_556  S
C1315      C1316   1.409       .  D
C1315      C2906   1.573       .  S
C1315      C2976   1.573       .  S
C1316      C2668   1.591       .  S
C1316      C2766   1.582       .  S
C1317      C1318   1.398       .  D
C1317      C2962   1.570       .  S
C1317      C3032   1.557       .  S
C1318      C1657   1.553       .  S
C1318      C1758   1.549       .  S
C1319      C1320   1.403       .  D
C1319      C2892   1.576       .  S
C1319      C3046   1.573       .  S
C1320      C2164   1.556       .  S
C1320      C2262   1.560       .  S
C1321      C1322   1.413       .  A
C1321      C1326   1.437       .  A
C1322      C1323   1.425       .  A
C1322      C1327   1.448   1_545  S
C1323      C1324   1.432       .  A
C1323      C1330   1.453   1_545  S
C1324      C1325   1.421       .  A
C1325      C1326   1.450       .  A
C1325      C1328   1.444       .  S
C1326      C1329   1.447       .  S
C1327      N1334   1.157       .  T
C1328      N1333   1.157       .  T
C1329      N1331   1.157       .  T
C1330      N1332   1.158       .  T
C1335      C1336   1.413       .  A
C1335      C1340   1.429   1_655  A
C1336      C1337   1.456       .  A
C1336      C1341   1.442       .  S
C1337      C1338   1.447       .  A
C1337      C1344   1.437       .  S
C1338      C1339   1.430   1_655  A
C1339      C1340   1.434       .  A
C1339      C1342   1.444       .  S
C1340      C1343   1.455       .  S
C1341      N1348   1.155       .  T
C1342      N1347   1.157       .  T
C1343      N1345   1.157       .  T
C1344      N1346   1.156       .  T
C1349      C1350   1.410   1_545  A
C1349      C1354   1.430       .  A
C1350      C1351   1.443       .  A
C1350      C1355   1.449       .  S
C1351      C1352   1.444   1_565  A
C1351      C1358   1.441       .  S
C1352      C1353   1.412       .  A
C1353      C1354   1.420       .  A
C1353      C1356   1.446       .  S
C1354      C1357   1.455       .  S
C1355      N1362   1.157       .  T
C1356      N1361   1.156       .  T
C1357      N1359   1.158       .  T
C1358      N1360   1.158       .  T
C1363      C1364   1.418       .  A
C1363      C1368   1.418       .  A
C1364      C1365   1.437       .  A
C1364      C1369   1.449   1_455  S
C1365      C1366   1.430       .  A
C1365      C1372   1.449   1_455  S
C1366      C1367   1.429       .  A
C1367      C1368   1.429       .  A
C1367      C1370   1.448       .  S
C1368      C1371   1.454       .  S
C1369      N1376   1.157       .  T
C1370      N1375   1.158       .  T
C1371      N1373   1.157       .  T
C1372      N1374   1.157       .  T
C1377      C1378   1.423       .  A
C1377      C1382   1.422       .  A
C1378      C1379   1.442       .  A
C1378      C1383   1.448       .  S
C1379      C1380   1.430       .  A
C1379      C1386   1.446       .  S
C1380      C1381   1.428       .  A
C1381      C1382   1.435       .  A
C1381      C1384   1.447   1_545  S
C1382      C1385   1.451   1_545  S
C1383      N1390   1.157       .  T
C1384      N1389   1.157       .  T
C1385      N1387   1.157       .  T
C1386      N1388   1.157       .  T
C1391      C1392   1.411   1_455  A
C1391      C1396   1.424       .  A
C1392      C1393   1.437       .  A
C1392      C1397   1.447       .  S
C1393      C1394   1.436   1_655  A
C1393      C1400   1.446       .  S
C1394      C1395   1.414       .  A
C1395      C1396   1.417       .  A
C1395      C1398   1.447       .  S
C1396      C1399   1.456       .  S
C1397      N1404   1.157       .  T
C1398      N1403   1.157       .  T
C1399      N1401   1.158       .  T
C1400      N1402   1.157       .  T
C1405      C1406   1.417       .  A
C1405      C1410   1.418   1_565  A
C1406      C1407   1.446       .  A
C1406      C1411   1.446       .  S
C1407      C1408   1.433       .  A
C1407      C1414   1.444       .  S
C1408      C1409   1.433   1_565  A
C1409      C1410   1.431       .  A
C1409      C1412   1.446       .  S
C1410      C1413   1.454       .  S
C1411      N1418   1.157       .  T
C1412      N1417   1.156       .  T
C1413      N1415   1.157       .  T
C1414      N1416   1.157       .  T
C1419      C1420   1.413   1_455  A
C1419      C1424   1.440       .  A
C1420      C1421   1.424       .  A
C1420      C1425   1.445       .  S
C1421      C1422   1.432   1_655  A
C1421      C1428   1.454       .  S
C1422      C1423   1.421       .  A
C1423      C1424   1.456       .  A
C1423      C1426   1.444       .  S
C1424      C1427   1.444       .  S
C1425      N1432   1.156       .  T
C1426      N1431   1.157       .  T
C1427      N1429   1.157       .  T
C1428      N1430   1.157       .  T
C1433      C1434   1.430   1_655  A
C1433      C1438   1.413       .  A
C1434      C1435   1.427       .  A
C1434      C1439   1.455       .  S
C1435      C1436   1.418   1_455  A
C1435      C1442   1.441       .  S
C1436      C1437   1.446       .  A
C1437      C1438   1.455       .  A
C1437      C1440   1.439       .  S
C1438      C1441   1.441       .  S
C1439      N1446   1.157       .  T
C1440      N1445   1.156       .  T
C1441      N1443   1.155       .  T
C1442      N1444   1.156       .  T
C1447      C1448   1.413       .  A
C1447      C1452   1.420       .  A
C1448      C1449   1.446       .  A
C1448      C1453   1.438       .  S
C1449      C1450   1.436       .  A
C1449      C1456   1.445       .  S
C1450      C1451   1.422       .  A
C1451      C1452   1.424       .  A
C1451      C1454   1.443       .  S
C1452      C1455   1.455       .  S
C1453      N1460   1.154       .  T
C1454      N1459   1.157       .  T
C1455      N1457   1.157       .  T
C1456      N1458   1.157       .  T
C1461      C1462   1.422       .  A
C1461      C1466   1.410       .  A
C1462      C1463   1.431       .  A
C1462      C1467   1.453       .  S
C1463      C1464   1.427       .  A
C1463      C1470   1.445       .  S
C1464      C1465   1.432       .  A
C1465      C1466   1.440       .  A
C1465      C1468   1.443       .  S
C1466      C1469   1.441       .  S
C1467      N1474   1.157       .  T
C1468      N1473   1.157       .  T
C1469      N1471   1.155       .  T
C1470      N1472   1.157       .  T
C1475      C1476   1.426       .  A
C1475      C1480   1.432   1_455  A
C1476      C1477   1.436       .  A
C1476      C1481   1.443       .  S
C1477      C1478   1.422       .  A
C1477      C1484   1.444       .  S
C1478      C1479   1.418   1_455  A
C1479      C1480   1.433       .  A
C1479      C1482   1.452       .  S
C1480      C1483   1.446       .  S
C1481      N1488   1.156       .  T
C1482      N1487   1.157       .  T
C1483      N1485   1.157       .  T
C1484      N1486   1.155       .  T
C1489      C1490   1.405       .  A
C1489      C1494   1.420   1_455  A
C1490      C1491   1.402       .  A
C1490      C1495   1.449       .  S
C1491      C1492   1.412       .  A
C1491      C1498   1.452       .  S
C1492      C1493   1.398   1_455  A
C1493      C1494   1.393       .  A
C1493      C1496   1.452       .  S
C1494      C1497   1.455       .  S
C1495      N1502   1.157       .  T
C1496      N1501   1.157       .  T
C1497      N1499   1.157       .  T
C1498      N1500   1.157       .  T
C1503      C1504   1.396       .  A
C1503      C1508   1.416       .  A
C1504      C1505   1.389       .  A
C1504      C1509   1.452       .  S
C1505      C1506   1.414       .  A
C1505      C1512   1.443       .  S
C1506      C1507   1.407   1_655  A
C1507      C1508   1.386   1_455  A
C1507      C1510   1.456       .  S
C1508      C1511   1.455   1_655  S
C1509      N1516   1.157       .  T
C1510      N1515   1.158       .  T
C1511      N1513   1.157       .  T
C1512      N1514   1.154       .  T
C1517      C1518   1.422   1_545  A
C1517      C1522   1.412       .  A
C1518      C1519   1.412       .  A
C1518      C1523   1.456       .  S
C1519      C1520   1.411   1_565  A
C1519      C1526   1.441       .  S
C1520      C1521   1.446       .  A
C1521      C1522   1.450       .  A
C1521      C1524   1.442       .  S
C1522      C1525   1.446       .  S
C1523      N1530   1.157       .  T
C1524      N1529   1.157       .  T
C1525      N1527   1.157       .  T
C1526      N1528   1.157       .  T
C1531      C1532   1.425       .  A
C1531      C1536   1.434       .  A
C1532      C1533   1.430       .  A
C1532      C1537   1.448       .  S
C1533      C1534   1.425       .  A
C1533      C1540   1.453       .  S
C1534      C1535   1.416       .  A
C1535      C1536   1.447       .  A
C1535      C1538   1.445       .  S
C1536      C1539   1.442       .  S
C1537      N1544   1.157       .  T
C1538      N1543   1.157       .  T
C1539      N1541   1.156       .  T
C1540      N1542   1.157       .  T
C1545      C1546   1.414       .  A
C1545      C1550   1.411       .  A
C1546      C1547   1.419       .  A
C1546      C1551   1.456       .  S
C1547      C1548   1.424       .  A
C1547      C1554   1.443       .  S
C1548      C1549   1.434       .  A
C1549      C1550   1.437       .  A
C1549      C1552   1.444       .  S
C1550      C1553   1.447       .  S
C1551      N1558   1.157       .  T
C1552      N1557   1.157       .  T
C1553      N1555   1.157       .  T
C1554      N1556   1.158       .  T
C1559      C1560   1.430   1_545  A
C1559      C1564   1.426       .  A
C1560      C1561   1.437       .  A
C1560      C1565   1.445       .  S
C1561      C1562   1.416   1_565  A
C1561      C1568   1.450       .  S
C1562      C1563   1.418       .  A
C1563      C1564   1.428       .  A
C1563      C1566   1.452       .  S
C1564      C1567   1.447       .  S
C1565      N1572   1.157       .  T
C1566      N1571   1.157       .  T
C1567      N1569   1.157       .  T
C1568      N1570   1.157       .  T
C1573      C1574   1.402       .  A
C1573      C1578   1.414       .  A
C1574      C1575   1.380       .  A
C1574      C1579   1.441       .  S
C1575      C1576   1.396       .  A
C1575      C1582   1.455       .  S
C1576      C1577   1.403       .  A
C1577      C1578   1.387       .  A
C1577      C1580   1.454       .  S
C1578      C1581   1.451       .  S
C1579      N1586   1.153       .  T
C1580      N1585   1.157       .  T
C1581      N1583   1.158       .  T
C1582      N1584   1.157       .  T
C1587      C1588   1.394       .  A
C1587      C1592   1.412       .  A
C1588      C1589   1.403       .  A
C1588      C1593   1.443       .  S
C1589      C1590   1.422       .  A
C1589      C1596   1.452       .  S
C1590      C1591   1.405       .  A
C1591      C1592   1.389       .  A
C1591      C1594   1.460   1_545  S
C1592      C1595   1.440       .  S
C1593      N1600   1.156       .  T
C1594      N1599   1.157       .  T
C1595      N1597   1.152       .  T
C1596      N1598   1.157       .  T
C1601      C1602   1.408       .  A
C1601      C1606   1.410       .  A
C1602      C1603   1.395       .  A
C1602      C1607   1.450       .  S
C1603      C1604   1.395       .  A
C1603      C1610   1.443       .  S
C1604      C1605   1.402       .  A
C1605      C1606   1.398       .  A
C1605      C1608   1.448   1_545  S
C1606      C1609   1.451       .  S
C1607      N1614   1.157       .  T
C1608      N1613   1.157       .  T
C1609      N1611   1.157   1_545  T
C1610      N1612   1.156       .  T
C1615      C1616   1.421       .  A
C1615      C1620   1.411       .  A
C1616      C1617   1.434       .  A
C1616      C1621   1.452       .  S
C1617      C1618   1.431       .  A
C1617      C1624   1.446       .  S
C1618      C1619   1.433       .  A
C1619      C1620   1.445       .  A
C1619      C1622   1.442       .  S
C1620      C1623   1.437       .  S
C1621      N1628   1.157       .  T
C1622      N1627   1.157       .  T
C1623      N1625   1.154       .  T
C1624      N1626   1.157       .  T
C1629      C1630   1.419       .  A
C1629      C1634   1.434   1_565  A
C1630      C1631   1.450       .  A
C1630      C1635   1.443       .  S
C1631      C1632   1.436       .  A
C1631      C1638   1.445       .  S
C1632      C1633   1.413   1_565  A
C1633      C1634   1.431       .  A
C1633      C1636   1.448       .  S
C1634      C1637   1.452       .  S
C1635      N1642   1.156       .  T
C1636      N1641   1.157       .  T
C1637      N1639   1.157       .  T
C1638      N1640   1.157       .  T
C1643      C1644   1.427       .  A
C1643      C1648   1.428       .  A
C1644      C1645   1.447       .  A
C1644      C1649   1.438       .  S
C1645      C1646   1.423       .  A
C1645      C1652   1.445       .  S
C1646      C1647   1.430       .  A
C1647      C1648   1.440       .  A
C1647      C1650   1.448   1_545  S
C1648      C1651   1.452   1_545  S
C1649      N1656   1.154       .  T
C1650      N1655   1.157       .  T
C1651      N1653   1.157       .  T
C1652      N1654   1.157       .  T
C1657      C1658   1.414       .  A
C1657      C1662   1.437       .  A
C1658      C1659   1.421       .  A
C1658      C1663   1.448       .  S
C1659      C1660   1.425       .  A
C1659      C1666   1.454       .  S
C1660      C1661   1.408       .  A
C1661      C1662   1.435       .  A
C1661      C1664   1.446       .  S
C1662      C1665   1.446       .  S
C1663      N1670   1.157       .  T
C1664      N1669   1.156       .  T
C1665      N1667   1.157       .  T
C1666      N1668   1.157       .  T
C1671      C1672   1.408       .  A
C1671      C1676   1.419       .  A
C1672      C1673   1.390       .  A
C1672      C1677   1.443       .  S
C1673      C1674   1.398       .  A
C1673      C1680   1.445       .  S
C1674      C1675   1.400       .  A
C1675      C1676   1.391       .  A
C1675      C1678   1.455       .  S
C1676      C1679   1.450       .  S
C1677      N1684   1.155       .  T
C1678      N1683   1.157       .  T
C1679      N1681   1.157       .  T
C1680      N1682   1.156       .  T
C1685      C1686   1.405   1_545  A
C1685      C1690   1.410       .  A
C1686      C1687   1.395       .  A
C1686      C1691   1.449       .  S
C1687      C1688   1.402   1_565  A
C1687      C1694   1.452       .  S
C1688      C1689   1.408       .  A
C1689      C1690   1.382       .  A
C1689      C1692   1.458       .  S
C1690      C1693   1.457       .  S
C1691      N1698   1.157       .  T
C1692      N1697   1.158       .  T
C1693      N1695   1.157       .  T
C1694      N1696   1.157       .  T
C1699      C1700   1.413       .  A
C1699      C1704   1.401       .  A
C1700      C1701   1.372       .  A
C1700      C1705   1.454       .  S
C1701      C1702   1.406       .  A
C1701      C1708   1.458       .  S
C1702      C1703   1.396       .  A
C1703      C1704   1.396       .  A
C1703      C1706   1.442       .  S
C1704      C1707   1.446       .  S
C1705      N1712   1.155   1_545  T
C1706      N1711   1.156       .  T
C1707      N1709   1.156       .  T
C1708      N1710   1.157   1_545  T
C1713      C1714   1.418       .  A
C1713      C1718   1.420       .  A
C1714      C1715   1.430       .  A
C1714      C1719   1.455       .  S
C1715      C1716   1.430       .  A
C1715      C1722   1.447       .  S
C1716      C1717   1.435       .  A
C1717      C1718   1.448       .  A
C1717      C1720   1.443       .  S
C1718      C1721   1.446       .  S
C1719      N1726   1.157       .  T
C1720      N1725   1.157       .  T
C1721      N1723   1.157       .  T
C1722      N1724   1.157       .  T
C1727      C1728   1.428       .  A
C1727      C1732   1.417   1_655  A
C1728      C1729   1.422       .  A
C1728      C1733   1.454       .  S
C1729      C1730   1.416   1_655  A
C1729      C1736   1.447       .  S
C1730      C1731   1.437       .  A
C1731      C1732   1.445       .  A
C1731      C1734   1.445       .  S
C1732      C1735   1.446       .  S
C1733      N1740   1.157       .  T
C1734      N1739   1.157       .  T
C1735      N1737   1.157       .  T
C1736      N1738   1.157       .  T
C1741      C1742   1.418       .  A
C1741      C1746   1.419   1_455  A
C1742      C1743   1.424       .  A
C1742      C1747   1.452       .  S
C1743      C1744   1.422       .  A
C1743      C1750   1.449       .  S
C1744      C1745   1.424   1_455  A
C1745      C1746   1.438       .  A
C1745      C1748   1.447       .  S
C1746      C1749   1.448       .  S
C1747      N1754   1.157       .  T
C1748      N1753   1.157       .  T
C1749      N1751   1.157       .  T
C1750      N1752   1.157       .  T
C1755      C1756   1.410       .  A
C1755      C1760   1.423       .  A
C1756      C1757   1.436       .  A
C1756      C1761   1.447       .  S
C1757      C1758   1.434       .  A
C1757      C1764   1.444       .  S
C1758      C1759   1.411       .  A
C1759      C1760   1.413       .  A
C1759      C1762   1.446       .  S
C1760      C1763   1.455       .  S
C1761      N1768   1.157       .  T
C1762      N1767   1.158       .  T
C1763      N1765   1.157       .  T
C1764      N1766   1.157       .  T
C1769      C1770   1.401       .  A
C1769      C1774   1.405       .  A
C1770      C1771   1.392       .  A
C1770      C1775   1.451       .  S
C1771      C1772   1.416       .  A
C1771      C1778   1.448       .  S
C1772      C1773   1.417       .  A
C1773      C1774   1.401       .  A
C1773      C1776   1.451       .  S
C1774      C1777   1.448       .  S
C1775      N1782   1.157       .  T
C1776      N1781   1.157   1_565  T
C1777      N1779   1.157   1_655  T
C1778      N1780   1.156       .  T
C1783      C1784   1.407       .  A
C1783      C1788   1.408       .  A
C1784      C1785   1.391       .  A
C1784      C1789   1.441       .  S
C1785      C1786   1.413       .  A
C1785      C1792   1.461       .  S
C1786      C1787   1.413       .  A
C1787      C1788   1.415       .  A
C1787      C1790   1.443       .  S
C1788      C1791   1.445       .  S
C1789      N1796   1.152       .  T
C1790      N1795   1.156       .  T
C1791      N1793   1.157       .  T
C1792      N1794   1.157       .  T
C1797      C1798   1.399   1_655  A
C1797      C1802   1.399       .  A
C1798      C1799   1.397       .  A
C1798      C1803   1.455       .  S
C1799      C1800   1.425       .  A
C1799      C1806   1.454       .  S
C1800      C1801   1.413   1_455  A
C1801      C1802   1.400       .  A
C1801      C1804   1.446       .  S
C1802      C1805   1.451       .  S
C1803      N1810   1.157       .  T
C1804      N1809   1.157       .  T
C1805      N1807   1.157       .  T
C1806      N1808   1.157       .  T
C1811      C1812   1.420       .  A
C1811      C1816   1.420       .  A
C1812      C1813   1.398       .  A
C1812      C1817   1.449       .  S
C1813      C1814   1.400       .  A
C1813      C1820   1.455       .  S
C1814      C1815   1.406       .  A
C1815      C1816   1.396       .  A
C1815      C1818   1.452       .  S
C1816      C1819   1.457   1_455  S
C1817      N1824   1.158   1_565  T
C1818      N1823   1.156       .  T
C1819      N1821   1.158       .  T
C1820      N1822   1.157       .  T
C1825      C1826   1.422       .  A
C1825      C1830   1.426       .  A
C1826      C1827   1.433   1_554  A
C1826      C1831   1.446   1_554  S
C1827      C1828   1.414   1_556  A
C1827      C1834   1.438       .  S
C1828      C1829   1.419       .  A
C1829      C1830   1.433       .  A
C1829      C1832   1.449       .  S
C1830      C1833   1.446       .  S
C1831      N1838   1.157       .  T
C1832      N1837   1.157       .  T
C1833      N1835   1.157       .  T
C1834      N1836   1.153       .  T
C1839      C1840   1.410       .  A
C1839      C1844   1.421   1_554  A
C1840      C1841   1.437       .  A
C1840      C1845   1.448       .  S
C1841      C1842   1.430   1_554  A
C1841      C1848   1.443       .  S
C1842      C1843   1.420       .  A
C1843      C1844   1.418       .  A
C1843      C1846   1.447       .  S
C1844      C1847   1.455       .  S
C1845      N1852   1.157       .  T
C1846      N1851   1.158       .  T
C1847      N1849   1.157       .  T
C1848      N1850   1.156       .  T
C1853      C1854   1.430       .  A
C1853      C1858   1.420       .  A
C1854      C1855   1.422       .  A
C1854      C1859   1.453       .  S
C1855      C1856   1.418       .  A
C1855      C1862   1.447   1_545  S
C1856      C1857   1.430       .  A
C1857      C1858   1.444       .  A
C1857      C1860   1.444       .  S
C1858      C1861   1.437       .  S
C1859      N1866   1.157   1_545  T
C1860      N1865   1.157       .  T
C1861      N1863   1.154       .  T
C1862      N1864   1.158       .  T
C1867      C1868   1.414       .  A
C1867      C1872   1.416       .  A
C1868      C1869   1.449       .  A
C1868      C1873   1.444       .  S
C1869      C1870   1.444       .  A
C1869      C1876   1.445       .  S
C1870      C1871   1.420       .  A
C1871      C1872   1.419       .  A
C1871      C1874   1.436       .  S
C1872      C1875   1.441       .  S
C1873      N1880   1.157       .  T
C1874      N1879   1.154       .  T
C1875      N1877   1.153       .  T
C1876      N1878   1.157       .  T
C1881      C1882   1.432   1_554  A
C1881      C1886   1.419       .  A
C1882      C1883   1.435       .  A
C1882      C1887   1.447       .  S
C1883      C1884   1.415   1_556  A
C1883      C1890   1.450       .  S
C1884      C1885   1.422       .  A
C1885      C1886   1.429       .  A
C1885      C1888   1.451       .  S
C1886      C1889   1.449       .  S
C1887      N1894   1.157       .  T
C1888      N1893   1.156       .  T
C1889      N1891   1.157       .  T
C1890      N1892   1.157       .  T
C1895      C1896   1.427       .  A
C1895      C1900   1.447       .  A
C1896      C1897   1.468       .  A
C1896      C1901   1.442       .  S
C1897      C1898   1.445       .  A
C1897      C1904   1.443       .  S
C1898      C1899   1.417       .  A
C1899      C1900   1.437       .  A
C1899      C1902   1.444   1_556  S
C1900      C1903   1.453   1_556  S
C1901      N1908   1.157       .  T
C1902      N1907   1.157       .  T
C1903      N1905   1.158       .  T
C1904      N1906   1.157       .  T
C1909      C1910   1.412       .  A
C1909      C1914   1.413   1_545  A
C1910      C1911   1.441       .  A
C1910      C1915   1.444       .  S
C1911      C1912   1.437       .  A
C1911      C1918   1.443       .  S
C1912      C1913   1.429   1_545  A
C1913      C1914   1.428       .  A
C1913      C1916   1.440       .  S
C1914      C1917   1.455       .  S
C1915      N1922   1.155       .  T
C1916      N1921   1.157       .  T
C1917      N1919   1.157       .  T
C1918      N1920   1.157       .  T
C1923      C1924   1.426       .  A
C1923      C1928   1.411   1_545  A
C1924      C1925   1.424       .  A
C1924      C1929   1.453       .  S
C1925      C1926   1.420       .  A
C1925      C1932   1.449       .  S
C1926      C1927   1.429   1_545  A
C1927      C1928   1.441       .  A
C1927      C1930   1.445       .  S
C1928      C1931   1.442       .  S
C1929      N1936   1.157       .  T
C1930      N1935   1.157       .  T
C1931      N1933   1.156       .  T
C1932      N1934   1.157       .  T
C1937      C1938   1.414       .  A
C1937      C1942   1.403       .  A
C1938      C1939   1.450       .  A
C1938      C1943   1.443       .  S
C1939      C1940   1.446       .  A
C1939      C1946   1.443       .  S
C1940      C1941   1.415       .  A
C1941      C1942   1.412       .  A
C1941      C1944   1.439       .  S
C1942      C1945   1.437       .  S
C1943      N1950   1.157       .  T
C1944      N1949   1.157       .  T
C1945      N1947   1.156       .  T
C1946      N1948   1.157       .  T
C1951      C1952   1.422       .  A
C1951      C1956   1.402       .  A
C1952      C1953   1.426       .  A
C1952      C1957   1.453       .  S
C1953      C1954   1.422       .  A
C1953      C1960   1.444       .  S
C1954      C1955   1.444       .  A
C1955      C1956   1.437       .  A
C1955      C1958   1.439       .  S
C1956      C1959   1.441       .  S
C1957      N1964   1.157       .  T
C1958      N1963   1.157       .  T
C1959      N1961   1.154       .  T
C1960      N1962   1.157       .  T
C1965      C1966   1.414       .  A
C1965      C1970   1.424   1_545  A
C1966      C1967   1.444       .  A
C1966      C1971   1.446       .  S
C1967      C1968   1.433       .  A
C1967      C1974   1.442       .  S
C1968      C1969   1.423   1_545  A
C1969      C1970   1.428       .  A
C1969      C1972   1.448       .  S
C1970      C1973   1.452       .  S
C1971      N1978   1.157       .  T
C1972      N1977   1.157       .  T
C1973      N1975   1.157       .  T
C1974      N1976   1.156       .  T
C1979      C1980   1.422   1_565  A
C1979      C1984   1.423       .  A
C1980      C1981   1.429       .  A
C1980      C1985   1.454       .  S
C1981      C1982   1.426   1_545  A
C1981      C1988   1.445       .  S
C1982      C1983   1.424       .  A
C1983      C1984   1.445       .  A
C1983      C1986   1.446       .  S
C1984      C1987   1.440       .  S
C1985      N1992   1.157       .  T
C1986      N1991   1.157       .  T
C1987      N1989   1.156       .  T
C1988      N1990   1.157       .  T
C1993      C1994   1.407       .  A
C1993      C1998   1.394       .  A
C1994      C1995   1.386       .  A
C1994      C1999   1.456       .  S
C1995      C1996   1.411       .  A
C1995      C2002   1.456   1_545  S
C1996      C1997   1.404       .  A
C1997      C1998   1.389       .  A
C1997      C2000   1.447       .  S
C1998      C2001   1.452       .  S
C1999      N2006   1.157   1_545  T
C2000      N2005   1.156       .  T
C2001      N2003   1.157       .  T
C2002      N2004   1.158       .  T
C2007      C2008   1.404       .  A
C2007      C2012   1.412   1_565  A
C2008      C2009   1.397       .  A
C2008      C2013   1.446       .  S
C2009      C2010   1.398       .  A
C2009      C2016   1.447       .  S
C2010      C2011   1.409   1_565  A
C2011      C2012   1.395       .  A
C2011      C2014   1.455       .  S
C2012      C2015   1.453       .  S
C2013      N2020   1.155       .  T
C2014      N2019   1.157       .  T
C2015      N2017   1.158       .  T
C2016      N2018   1.155       .  T
C2021      C2022   1.429       .  A
C2021      C2026   1.427   1_554  A
C2022      C2023   1.437       .  A
C2022      C2027   1.445       .  S
C2023      C2024   1.415       .  A
C2023      C2030   1.449       .  S
C2024      C2025   1.415   1_554  A
C2025      C2026   1.428       .  A
C2025      C2028   1.452       .  S
C2026      C2029   1.444       .  S
C2027      N2034   1.157       .  T
C2028      N2033   1.157       .  T
C2029      N2031   1.157       .  T
C2030      N2032   1.157       .  T
C2035      C2036   1.420   1_556  A
C2035      C2040   1.421       .  A
C2036      C2037   1.438       .  A
C2036      C2041   1.454       .  S
C2037      C2038   1.435   1_554  A
C2037      C2044   1.444       .  S
C2038      C2039   1.436       .  A
C2039      C2040   1.455       .  A
C2039      C2042   1.443       .  S
C2040      C2043   1.445       .  S
C2041      N2048   1.157       .  T
C2042      N2047   1.157       .  T
C2043      N2045   1.157       .  T
C2044      N2046   1.156       .  T
C2049      C2050   1.436       .  A
C2049      C2054   1.416       .  A
C2050      C2051   1.428       .  A
C2050      C2055   1.454       .  S
C2051      C2052   1.417       .  A
C2051      C2058   1.451       .  S
C2052      C2053   1.436       .  A
C2053      C2054   1.447       .  A
C2053      C2056   1.442       .  S
C2054      C2057   1.445       .  S
C2055      N2062   1.157       .  T
C2056      N2061   1.156       .  T
C2057      N2059   1.157       .  T
C2058      N2060   1.158       .  T
C2063      C2064   1.410       .  A
C2063      C2068   1.431       .  A
C2064      C2065   1.438       .  A
C2064      C2069   1.449       .  S
C2065      C2066   1.437       .  A
C2065      C2072   1.444       .  S
C2066      C2067   1.413       .  A
C2067      C2068   1.430       .  A
C2067      C2070   1.449       .  S
C2068      C2071   1.452       .  S
C2069      N2076   1.157       .  T
C2070      N2075   1.157       .  T
C2071      N2073   1.157       .  T
C2072      N2074   1.157       .  T
C2077      C2078   1.391       .  A
C2077      C2082   1.405       .  A
C2078      C2079   1.387       .  A
C2078      C2083   1.449       .  S
C2079      C2080   1.407       .  A
C2079      C2086   1.444       .  S
C2080      C2081   1.419       .  A
C2081      C2082   1.405       .  A
C2081      C2084   1.450       .  S
C2082      C2085   1.447       .  S
C2083      N2090   1.157       .  T
C2084      N2089   1.157       .  T
C2085      N2087   1.157       .  T
C2086      N2088   1.158       .  T
C2091      C2092   1.416       .  A
C2091      C2096   1.392       .  A
C2092      C2093   1.372       .  A
C2092      C2097   1.461   1_556  S
C2093      C2094   1.407       .  A
C2093      C2100   1.454   1_556  S
C2094      C2095   1.412       .  A
C2095      C2096   1.387       .  A
C2095      C2098   1.447       .  S
C2096      C2099   1.450       .  S
C2097      N2104   1.157       .  T
C2098      N2103   1.156       .  T
C2099      N2101   1.157       .  T
C2100      N2102   1.159       .  T
C2105      C2106   1.411       .  A
C2105      C2110   1.413       .  A
C2106      C2107   1.393       .  A
C2106      C2111   1.453       .  S
C2107      C2108   1.399       .  A
C2107      C2114   1.448       .  S
C2108      C2109   1.405       .  A
C2109      C2110   1.396       .  A
C2109      C2112   1.451   1_556  S
C2110      C2113   1.451   1_556  S
C2111      N2118   1.157       .  T
C2112      N2117   1.157       .  T
C2113      N2115   1.156       .  T
C2114      N2116   1.157       .  T
C2119      C2120   1.413       .  A
C2119      C2124   1.417       .  A
C2120      C2121   1.425       .  A
C2120      C2125   1.450       .  S
C2121      C2122   1.424       .  A
C2121      C2128   1.446       .  S
C2122      C2123   1.418       .  A
C2123      C2124   1.421       .  A
C2123      C2126   1.443   1_545  S
C2124      C2127   1.453   1_545  S
C2125      N2132   1.157       .  T
C2126      N2131   1.155       .  T
C2127      N2129   1.157       .  T
C2128      N2130   1.157       .  T
C2133      C2134   1.436       .  A
C2133      C2138   1.426       .  A
C2134      C2135   1.445       .  A
C2134      C2139   1.440       .  S
C2135      C2136   1.412       .  A
C2135      C2142   1.444       .  S
C2136      C2137   1.421       .  A
C2137      C2138   1.427       .  A
C2137      C2140   1.454   1_545  S
C2138      C2141   1.445   1_545  S
C2139      N2146   1.156       .  T
C2140      N2145   1.157       .  T
C2141      N2143   1.157       .  T
C2142      N2144   1.156       .  T
C2147      C2148   1.415       .  A
C2147      C2152   1.456       .  A
C2148      C2149   1.438       .  A
C2148      C2153   1.447       .  S
C2149      C2150   1.433       .  A
C2149      C2156   1.446       .  S
C2150      C2151   1.408       .  A
C2151      C2152   1.436       .  A
C2151      C2154   1.442       .  S
C2152      C2155   1.446       .  S
C2153      N2160   1.157       .  T
C2154      N2159   1.155       .  T
C2155      N2157   1.158       .  T
C2156      N2158   1.157       .  T
C2161      C2162   1.416       .  A
C2161      C2166   1.412       .  A
C2162      C2163   1.421       .  A
C2162      C2167   1.454       .  S
C2163      C2164   1.425       .  A
C2163      C2170   1.448       .  S
C2164      C2165   1.426       .  A
C2165      C2166   1.440       .  A
C2165      C2168   1.447       .  S
C2166      C2169   1.445       .  S
C2167      N2174   1.157       .  T
C2168      N2173   1.157       .  T
C2169      N2171   1.156       .  T
C2170      N2172   1.157       .  T
C2175      C2176   1.405       .  A
C2175      C2180   1.412       .  A
C2176      C2177   1.372       .  A
C2176      C2181   1.459       .  S
C2177      C2178   1.414       .  A
C2177      C2184   1.450       .  S
C2178      C2179   1.403       .  A
C2179      C2180   1.403       .  A
C2179      C2182   1.447       .  S
C2180      C2183   1.445       .  S
C2181      N2188   1.157       .  T
C2182      N2187   1.157       .  T
C2183      N2185   1.156       .  T
C2184      N2186   1.155       .  T
C2189      C2190   1.409       .  A
C2189      C2194   1.428   1_545  A
C2190      C2191   1.402       .  A
C2190      C2195   1.449       .  S
C2191      C2192   1.414       .  A
C2191      C2198   1.449       .  S
C2192      C2193   1.400       .  A
C2193      C2194   1.396   1_545  A
C2193      C2196   1.454   1_545  S
C2194      C2197   1.458       .  S
C2195      N2202   1.157       .  T
C2196      N2201   1.157       .  T
C2197      N2199   1.158       .  T
C2198      N2200   1.156       .  T
C2203      C2204   1.407       .  A
C2203      C2208   1.407   1_545  A
C2204      C2205   1.401       .  A
C2204      C2209   1.454       .  S
C2205      C2206   1.419       .  A
C2205      C2212   1.452       .  S
C2206      C2207   1.424   1_545  A
C2207      C2208   1.414       .  A
C2207      C2210   1.448       .  S
C2208      C2211   1.442       .  S
C2209      N2216   1.157       .  T
C2210      N2215   1.157       .  T
C2211      N2213   1.154       .  T
C2212      N2214   1.156       .  T
C2217      C2218   1.431       .  A
C2217      C2222   1.418   1_554  A
C2218      C2219   1.432       .  A
C2218      C2223   1.445       .  S
C2219      C2220   1.410   1_554  A
C2219      C2226   1.447       .  S
C2220      C2221   1.423       .  A
C2221      C2222   1.426       .  A
C2221      C2224   1.452       .  S
C2222      C2225   1.448       .  S
C2223      N2230   1.157       .  T
C2224      N2229   1.157       .  T
C2225      N2227   1.157       .  T
C2226      N2228   1.156       .  T
C2231      C2232   1.423   1_556  A
C2231      C2236   1.409       .  A
C2232      C2233   1.418       .  A
C2232      C2237   1.456       .  S
C2233      C2234   1.419   1_554  A
C2233      C2240   1.445       .  S
C2234      C2235   1.441       .  A
C2235      C2236   1.447       .  A
C2235      C2238   1.441       .  S
C2236      C2239   1.446       .  S
C2237      N2244   1.157       .  T
C2238      N2243   1.157       .  T
C2239      N2241   1.157       .  T
C2240      N2242   1.157       .  T
C2245      C2246   1.441       .  A
C2245      C2250   1.412       .  A
C2246      C2247   1.446       .  A
C2246      C2251   1.442       .  S
C2247      C2248   1.413       .  A
C2247      C2254   1.444       .  S
C2248      C2249   1.432       .  A
C2249      C2250   1.413       .  A
C2249      C2252   1.462       .  S
C2250      C2253   1.444       .  S
C2251      N2258   1.157       .  T
C2252      N2257   1.158       .  T
C2253      N2255   1.156       .  T
C2254      N2256   1.157       .  T
C2259      C2260   1.416       .  A
C2259      C2264   1.424       .  A
C2260      C2261   1.440       .  A
C2260      C2265   1.445       .  S
C2261      C2262   1.431       .  A
C2261      C2268   1.447       .  S
C2262      C2263   1.419       .  A
C2263      C2264   1.422       .  A
C2263      C2266   1.446       .  S
C2264      C2267   1.453       .  S
C2265      N2272   1.157       .  T
C2266      N2271   1.157       .  T
C2267      N2269   1.157       .  T
C2268      N2270   1.157       .  T
C2273      C2274   1.408       .  A
C2273      C2278   1.405       .  A
C2274      C2275   1.396       .  A
C2274      C2279   1.456       .  S
C2275      C2276   1.416       .  A
C2275      C2282   1.454       .  S
C2276      C2277   1.414       .  A
C2277      C2278   1.402       .  A
C2277      C2280   1.450       .  S
C2278      C2281   1.440       .  S
C2279      N2286   1.157       .  T
C2280      N2285   1.157       .  T
C2281      N2283   1.153       .  T
C2282      N2284   1.157       .  T
C2287      C2288   1.398       .  A
C2287      C2292   1.418       .  A
C2288      C2289   1.393       .  A
C2288      C2293   1.450       .  S
C2289      C2290   1.409       .  A
C2289      C2296   1.450       .  S
C2290      C2291   1.396       .  A
C2291      C2292   1.388       .  A
C2291      C2294   1.453       .  S
C2292      C2295   1.452       .  S
C2293      N2300   1.158       .  T
C2294      N2299   1.157       .  T
C2295      N2297   1.157       .  T
C2296      N2298   1.157       .  T
C2301      C2302   1.403       .  A
C2301      C2306   1.410       .  A
C2302      C2303   1.400       .  A
C2302      C2307   1.456       .  S
C2303      C2304   1.422       .  A
C2303      C2310   1.446       .  S
C2304      C2305   1.425       .  A
C2305      C2306   1.408       .  A
C2305      C2308   1.451       .  S
C2306      C2309   1.453       .  S
C2307      N2314   1.157       .  T
C2308      N2313   1.158   1_565  T
C2309      N2311   1.158       .  T
C2310      N2312   1.155       .  T
C2315      C2316   1.421   1_554  A
C2315      C2320   1.406       .  A
C2316      C2317   1.393       .  A
C2316      C2321   1.455       .  S
C2317      C2318   1.394       .  A
C2317      C2324   1.452       .  S
C2318      C2319   1.412       .  A
C2319      C2320   1.392   1_556  A
C2319      C2322   1.455   1_556  S
C2320      C2323   1.457       .  S
C2321      N2328   1.157       .  T
C2322      N2327   1.157       .  T
C2323      N2325   1.158       .  T
C2324      N2326   1.157       .  T
C2329      C2330   1.446   1_556  A
C2329      C2334   1.416       .  A
C2330      C2331   1.446       .  A
C2330      C2335   1.441       .  S
C2331      C2332   1.411   1_554  A
C2331      C2338   1.447       .  S
C2332      C2333   1.424       .  A
C2333      C2334   1.421       .  A
C2333      C2336   1.454       .  S
C2334      C2337   1.446       .  S
C2335      N2342   1.157       .  T
C2336      N2341   1.157       .  T
C2337      N2339   1.157       .  T
C2338      N2340   1.157       .  T
C2343      C2344   1.419       .  A
C2343      C2348   1.417   1_554  A
C2344      C2345   1.422       .  A
C2344      C2349   1.453       .  S
C2345      C2346   1.422       .  A
C2345      C2352   1.448       .  S
C2346      C2347   1.428   1_554  A
C2347      C2348   1.439       .  A
C2347      C2350   1.445       .  S
C2348      C2351   1.448       .  S
C2349      N2356   1.157       .  T
C2350      N2355   1.157       .  T
C2351      N2353   1.157       .  T
C2352      N2354   1.157       .  T
C2357      C2358   1.416       .  A
C2357      C2362   1.412       .  A
C2358      C2359   1.412       .  A
C2358      C2363   1.453       .  S
C2359      C2360   1.432       .  A
C2359      C2366   1.446       .  S
C2360      C2361   1.442       .  A
C2361      C2362   1.442       .  A
C2361      C2364   1.445       .  S
C2362      C2365   1.444       .  S
C2363      N2370   1.157       .  T
C2364      N2369   1.157       .  T
C2365      N2367   1.157       .  T
C2366      N2368   1.157       .  T
C2371      C2372   1.421       .  A
C2371      C2376   1.426   1_655  A
C2372      C2373   1.453       .  A
C2372      C2377   1.442       .  S
C2373      C2374   1.434   1_655  A
C2373      C2380   1.444       .  S
C2374      C2375   1.421       .  A
C2375      C2376   1.423       .  A
C2375      C2378   1.446       .  S
C2376      C2379   1.454       .  S
C2377      N2384   1.156       .  T
C2378      N2383   1.158       .  T
C2379      N2381   1.157       .  T
C2380      N2382   1.157       .  T
C2385      C2386   1.434       .  A
C2385      C2390   1.425   1_554  A
C2386      C2387   1.454       .  A
C2386      C2391   1.443       .  S
C2387      C2388   1.425       .  A
C2387      C2394   1.443       .  S
C2388      C2389   1.430       .  A
C2389      C2390   1.428   1_554  A
C2389      C2392   1.454   1_554  S
C2390      C2393   1.448       .  S
C2391      N2398   1.158       .  T
C2392      N2397   1.157       .  T
C2393      N2395   1.158       .  T
C2394      N2396   1.157       .  T
C2399      C2400   1.411   1_655  A
C2399      C2404   1.420       .  A
C2400      C2401   1.452       .  A
C2400      C2405   1.443       .  S
C2401      C2402   1.445   1_455  A
C2401      C2408   1.440       .  S
C2402      C2403   1.426       .  A
C2403      C2404   1.423       .  A
C2403      C2406   1.440       .  S
C2404      C2407   1.456       .  S
C2405      N2412   1.156       .  T
C2406      N2411   1.156       .  T
C2407      N2409   1.157       .  T
C2408      N2410   1.157       .  T
C2413      C2414   1.405       .  A
C2413      C2418   1.419       .  A
C2414      C2415   1.423       .  A
C2414      C2419   1.454   1_556  S
C2415      C2416   1.433       .  A
C2415      C2422   1.443   1_556  S
C2416      C2417   1.417       .  A
C2417      C2418   1.423       .  A
C2417      C2420   1.447       .  S
C2418      C2421   1.450       .  S
C2419      N2426   1.157       .  T
C2420      N2425   1.157       .  T
C2421      N2423   1.156       .  T
C2422      N2424   1.157       .  T
C2427      C2428   1.424       .  A
C2427      C2432   1.416   1_455  A
C2428      C2429   1.431       .  A
C2428      C2433   1.453       .  S
C2429      C2430   1.423       .  A
C2429      C2436   1.444       .  S
C2430      C2431   1.435   1_455  A
C2431      C2432   1.442       .  A
C2431      C2434   1.445       .  S
C2432      C2435   1.446       .  S
C2433      N2440   1.157       .  T
C2434      N2439   1.157       .  T
C2435      N2437   1.157       .  T
C2436      N2438   1.156       .  T
C2441      C2442   1.429       .  A
C2441      C2446   1.419       .  A
C2442      C2443   1.420       .  A
C2442      C2447   1.453       .  S
C2443      C2444   1.410       .  A
C2443      C2450   1.448       .  S
C2444      C2445   1.435       .  A
C2445      C2446   1.448       .  A
C2445      C2448   1.445       .  S
C2446      C2449   1.445       .  S
C2447      N2454   1.157       .  T
C2448      N2453   1.157       .  T
C2449      N2451   1.157       .  T
C2450      N2452   1.157       .  T
C2455      C2456   1.411       .  A
C2455      C2460   1.430       .  A
C2456      C2457   1.445       .  A
C2456      C2461   1.447       .  S
C2457      C2458   1.441       .  A
C2457      C2464   1.442       .  S
C2458      C2459   1.409       .  A
C2459      C2460   1.415       .  A
C2459      C2462   1.444       .  S
C2460      C2463   1.456       .  S
C2461      N2468   1.157       .  T
C2462      N2467   1.156       .  T
C2463      N2465   1.157       .  T
C2464      N2466   1.157       .  T
C2469      C2470   1.420   1_455  A
C2469      C2474   1.417       .  A
C2470      C2471   1.434       .  A
C2470      C2475   1.450       .  S
C2471      C2472   1.427   1_655  A
C2471      C2478   1.448       .  S
C2472      C2473   1.426       .  A
C2473      C2474   1.435       .  A
C2473      C2476   1.442       .  S
C2474      C2477   1.452       .  S
C2475      N2482   1.157       .  T
C2476      N2481   1.156       .  T
C2477      N2479   1.157       .  T
C2478      N2480   1.157       .  T
C2483      C2484   1.435   1_455  A
C2483      C2488   1.427       .  A
C2484      C2485   1.447       .  A
C2484      C2489   1.440       .  S
C2485      C2486   1.416       .  A
C2485      C2492   1.445       .  S
C2486      C2487   1.423   1_655  A
C2487      C2488   1.428       .  A
C2487      C2490   1.454       .  S
C2488      C2491   1.447       .  S
C2489      N2496   1.156       .  T
C2490      N2495   1.157       .  T
C2491      N2493   1.157       .  T
C2492      N2494   1.156       .  T
C2497      C2498   1.413       .  A
C2497      C2502   1.413   1_655  A
C2498      C2499   1.394       .  A
C2498      C2503   1.449       .  S
C2499      C2500   1.406       .  A
C2499      C2506   1.447       .  S
C2500      C2501   1.415   1_655  A
C2501      C2502   1.394       .  A
C2501      C2504   1.458       .  S
C2502      C2505   1.453       .  S
C2503      N2510   1.156       .  T
C2504      N2509   1.158       .  T
C2505      N2507   1.158       .  T
C2506      N2508   1.155       .  T
C2511      C2512   1.407   1_455  A
C2511      C2516   1.402       .  A
C2512      C2513   1.399       .  A
C2512      C2517   1.455       .  S
C2513      C2514   1.419   1_655  A
C2513      C2520   1.454       .  S
C2514      C2515   1.424       .  A
C2515      C2516   1.409       .  A
C2515      C2518   1.447       .  S
C2516      C2519   1.448       .  S
C2517      N2524   1.157       .  T
C2518      N2523   1.157       .  T
C2519      N2521   1.156       .  T
C2520      N2522   1.157       .  T
C2525      C2526   1.419       .  A
C2525      C2530   1.434       .  A
C2526      C2527   1.440       .  A
C2526      C2531   1.444       .  S
C2527      C2528   1.429       .  A
C2527      C2534   1.448       .  S
C2528      C2529   1.412       .  A
C2529      C2530   1.421       .  A
C2529      C2532   1.447       .  S
C2530      C2533   1.454       .  S
C2531      N2538   1.156       .  T
C2532      N2537   1.156       .  T
C2533      N2535   1.158       .  T
C2534      N2536   1.157       .  T
C2539      C2540   1.417       .  A
C2539      C2544   1.416       .  A
C2540      C2541   1.427       .  A
C2540      C2545   1.453       .  S
C2541      C2542   1.430       .  A
C2541      C2548   1.445       .  S
C2542      C2543   1.436       .  A
C2543      C2544   1.446       .  A
C2543      C2546   1.440       .  S
C2544      C2547   1.445       .  S
C2545      N2552   1.157       .  T
C2546      N2551   1.156       .  T
C2547      N2549   1.156       .  T
C2548      N2550   1.157       .  T
C2553      C2554   1.427   1_554  A
C2553      C2558   1.414       .  A
C2554      C2555   1.427       .  A
C2554      C2559   1.453       .  S
C2555      C2556   1.421   1_556  A
C2555      C2562   1.449       .  S
C2556      C2557   1.427       .  A
C2557      C2558   1.442       .  A
C2557      C2560   1.443       .  S
C2558      C2561   1.441       .  S
C2559      N2566   1.157       .  T
C2560      N2565   1.157       .  T
C2561      N2563   1.156       .  T
C2562      N2564   1.157       .  T
C2567      C2568   1.409       .  A
C2567      C2572   1.419   1_556  A
C2568      C2569   1.438       .  A
C2568      C2573   1.443       .  S
C2569      C2570   1.435       .  A
C2569      C2576   1.443       .  S
C2570      C2571   1.416       .  A
C2571      C2572   1.414   1_556  A
C2571      C2574   1.444   1_556  S
C2572      C2575   1.453       .  S
C2573      N2580   1.155       .  T
C2574      N2579   1.157       .  T
C2575      N2577   1.157       .  T
C2576      N2578   1.157       .  T
C2581      C2582   1.409       .  A
C2581      C2586   1.400       .  A
C2582      C2583   1.399       .  A
C2582      C2587   1.451       .  S
C2583      C2584   1.408       .  A
C2583      C2590   1.448       .  S
C2584      C2585   1.420       .  A
C2585      C2586   1.389       .  A
C2585      C2588   1.453       .  S
C2586      C2589   1.457       .  S
C2587      N2594   1.157       .  T
C2588      N2593   1.157       .  T
C2589      N2591   1.157       .  T
C2590      N2592   1.157       .  T
C2595      C2596   1.407       .  A
C2595      C2600   1.408       .  A
C2596      C2597   1.396       .  A
C2596      C2601   1.456   1_556  S
C2597      C2598   1.418       .  A
C2597      C2604   1.452       .  S
C2598      C2599   1.411       .  A
C2599      C2600   1.403       .  A
C2599      C2602   1.450       .  S
C2600      C2603   1.452       .  S
C2601      N2608   1.157       .  T
C2602      N2607   1.157       .  T
C2603      N2605   1.157       .  T
C2604      N2606   1.158       .  T
C2609      C2610   1.409       .  A
C2609      C2614   1.415       .  A
C2610      C2611   1.392       .  A
C2610      C2615   1.457       .  S
C2611      C2612   1.408       .  A
C2611      C2618   1.452       .  S
C2612      C2613   1.410       .  A
C2613      C2614   1.398       .  A
C2613      C2616   1.454   1_554  S
C2614      C2617   1.453   1_554  S
C2615      N2622   1.157       .  T
C2616      N2621   1.157       .  T
C2617      N2619   1.158       .  T
C2618      N2620   1.157       .  T
C2623      C2624   1.423       .  A
C2623      C2628   1.425       .  A
C2624      C2625   1.429       .  A
C2624      C2629   1.453       .  S
C2625      C2626   1.426       .  A
C2625      C2632   1.449       .  S
C2626      C2627   1.427       .  A
C2627      C2628   1.446       .  A
C2627      C2630   1.447       .  S
C2628      C2631   1.444       .  S
C2629      N2636   1.157       .  T
C2630      N2635   1.157       .  T
C2631      N2633   1.156       .  T
C2632      N2634   1.157       .  T
C2637      C2638   1.422       .  A
C2637      C2642   1.414   1_655  A
C2638      C2639   1.427       .  A
C2638      C2643   1.456       .  S
C2639      C2640   1.426       .  A
C2639      C2646   1.440       .  S
C2640      C2641   1.448   1_655  A
C2641      C2642   1.458       .  A
C2641      C2644   1.441       .  S
C2642      C2645   1.443       .  S
C2643      N2650   1.157       .  T
C2644      N2649   1.157       .  T
C2645      N2647   1.156       .  T
C2646      N2648   1.156       .  T
C2651      C2652   1.430   1_455  A
C2651      C2656   1.415       .  A
C2652      C2653   1.436       .  A
C2652      C2657   1.447       .  S
C2653      C2654   1.416   1_655  A
C2653      C2660   1.448       .  S
C2654      C2655   1.427       .  A
C2655      C2656   1.421       .  A
C2655      C2658   1.452       .  S
C2656      C2659   1.450       .  S
C2657      N2664   1.157       .  T
C2658      N2663   1.157       .  T
C2659      N2661   1.157       .  T
C2660      N2662   1.157       .  T
C2665      C2666   1.415       .  A
C2665      C2670   1.420       .  A
C2666      C2667   1.449       .  A
C2666      C2671   1.444       .  S
C2667      C2668   1.442       .  A
C2667      C2674   1.443       .  S
C2668      C2669   1.419       .  A
C2669      C2670   1.426       .  A
C2669      C2672   1.431       .  S
C2670      C2673   1.445       .  S
C2671      N2678   1.157       .  T
C2672      N2677   1.151       .  T
C2673      N2675   1.155       .  T
C2674      N2676   1.157       .  T
C2679      C2680   1.438       .  A
C2679      C2684   1.408       .  A
C2680      C2681   1.388       .  A
C2680      C2685   1.455       .  S
C2681      C2682   1.394       .  A
C2681      C2688   1.462       .  S
C2682      C2683   1.412       .  A
C2683      C2684   1.400       .  A
C2683      C2686   1.451       .  S
C2684      C2687   1.452       .  S
C2685      N2692   1.158       .  T
C2686      N2691   1.156       .  T
C2687      N2689   1.157       .  T
C2688      N2690   1.157       .  T
C2693      C2694   1.438       .  A
C2693      C2698   1.412   1_655  A
C2694      C2695   1.391       .  A
C2694      C2699   1.454       .  S
C2695      C2696   1.385       .  A
C2695      C2702   1.458       .  S
C2696      C2697   1.409       .  A
C2697      C2698   1.397   1_655  A
C2697      C2700   1.454   1_655  S
C2698      C2701   1.453       .  S
C2699      N2706   1.157       .  T
C2700      N2705   1.157       .  T
C2701      N2703   1.158       .  T
C2702      N2704   1.157       .  T
C2707      C2708   1.406       .  A
C2707      C2712   1.405       .  A
C2708      C2709   1.397       .  A
C2708      C2713   1.456       .  S
C2709      C2710   1.422       .  A
C2709      C2716   1.455   1_455  S
C2710      C2711   1.416       .  A
C2711      C2712   1.398       .  A
C2711      C2714   1.451       .  S
C2712      C2715   1.452       .  S
C2713      N2720   1.158   1_455  T
C2714      N2719   1.158       .  T
C2715      N2717   1.156       .  T
C2716      N2718   1.158       .  T
C2721      C2722   1.433   1_554  A
C2721      C2726   1.427       .  A
C2722      C2723   1.439       .  A
C2722      C2727   1.453       .  S
C2723      C2724   1.423   1_556  A
C2723      C2730   1.443       .  S
C2724      C2725   1.435       .  A
C2725      C2726   1.456       .  A
C2725      C2728   1.446       .  S
C2726      C2729   1.445       .  S
C2727      N2734   1.158       .  T
C2728      N2733   1.157       .  T
C2729      N2731   1.157       .  T
C2730      N2732   1.156       .  T
C2735      C2736   1.417       .  A
C2735      C2740   1.410   1_554  A
C2736      C2737   1.420       .  A
C2736      C2741   1.457       .  S
C2737      C2738   1.420       .  A
C2737      C2744   1.442       .  S
C2738      C2739   1.442   1_554  A
C2739      C2740   1.440       .  A
C2739      C2742   1.446       .  S
C2740      C2743   1.446       .  S
C2741      N2748   1.157       .  T
C2742      N2747   1.158       .  T
C2743      N2745   1.157       .  T
C2744      N2746   1.156       .  T
C2749      C2750   1.423       .  A
C2749      C2754   1.418       .  A
C2750      C2751   1.438       .  A
C2750      C2755   1.449       .  S
C2751      C2752   1.424       .  A
C2751      C2758   1.443       .  S
C2752      C2753   1.433       .  A
C2753      C2754   1.436       .  A
C2753      C2756   1.447       .  S
C2754      C2757   1.451       .  S
C2755      N2762   1.157       .  T
C2756      N2761   1.157       .  T
C2757      N2759   1.157       .  T
C2758      N2760   1.156       .  T
C2763      C2764   1.430       .  A
C2763      C2768   1.424       .  A
C2764      C2765   1.452       .  A
C2764      C2769   1.443       .  S
C2765      C2766   1.426       .  A
C2765      C2772   1.446       .  S
C2766      C2767   1.424       .  A
C2767      C2768   1.426       .  A
C2767      C2770   1.446       .  S
C2768      C2771   1.455       .  S
C2769      N2776   1.157       .  T
C2770      N2775   1.157       .  T
C2771      N2773   1.157       .  T
C2772      N2774   1.157       .  T
C2777      C2778   1.409       .  A
C2777      C2782   1.430       .  A
C2778      C2779   1.397       .  A
C2778      C2783   1.455       .  S
C2779      C2780   1.403       .  A
C2779      C2786   1.442       .  S
C2780      C2781   1.400       .  A
C2781      C2782   1.394       .  A
C2781      C2784   1.457       .  S
C2782      C2785   1.453       .  S
C2783      N2790   1.157       .  T
C2784      N2789   1.157       .  T
C2785      N2787   1.158       .  T
C2786      N2788   1.154       .  T
C2791      C2792   1.409       .  A
C2791      C2796   1.419       .  A
C2792      C2793   1.403       .  A
C2792      C2797   1.446       .  S
C2793      C2794   1.400       .  A
C2793      C2800   1.444       .  S
C2794      C2795   1.400       .  A
C2795      C2796   1.382       .  A
C2795      C2798   1.454       .  S
C2796      C2799   1.456       .  S
C2797      N2804   1.156       .  T
C2798      N2803   1.157       .  T
C2799      N2801   1.157       .  T
C2800      N2802   1.157       .  T
C2805      C2806   1.395       .  A
C2805      C2810   1.405   1_556  A
C2806      C2807   1.386       .  A
C2806      C2811   1.455       .  S
C2807      C2808   1.427       .  A
C2807      C2814   1.456       .  S
C2808      C2809   1.406   1_556  A
C2809      C2810   1.384       .  A
C2809      C2812   1.446       .  S
C2810      C2813   1.452       .  S
C2811      N2818   1.157       .  T
C2812      N2817   1.156       .  T
C2813      N2815   1.157       .  T
C2814      N2816   1.158       .  T
C2819      C2820   1.412       .  A
C2819      C2824   1.406   1_554  A
C2820      C2821   1.395       .  A
C2820      C2825   1.453       .  S
C2821      C2822   1.401       .  A
C2821      C2828   1.450       .  S
C2822      C2823   1.415   1_554  A
C2823      C2824   1.395       .  A
C2823      C2826   1.451       .  S
C2824      C2827   1.452       .  S
C2825      N2832   1.157       .  T
C2826      N2831   1.158       .  T
C2827      N2829   1.157       .  T
C2828      N2830   1.157       .  T
C2833      C2834   1.440       .  A
C2833      C2838   1.416       .  A
C2834      C2835   1.415       .  A
C2834      C2839   1.456       .  S
C2835      C2836   1.405       .  A
C2835      C2842   1.451       .  S
C2836      C2837   1.433       .  A
C2837      C2838   1.443       .  A
C2837      C2840   1.446       .  S
C2838      C2841   1.445       .  S
C2839      N2846   1.158       .  T
C2840      N2845   1.157       .  T
C2841      N2843   1.157       .  T
C2842      N2844   1.157       .  T
C2847      C2848   1.419       .  A
C2847      C2852   1.424       .  A
C2848      C2849   1.453       .  A
C2848      C2853   1.444       .  S
C2849      C2850   1.436       .  A
C2849      C2856   1.442       .  S
C2850      C2851   1.429       .  A
C2851      C2852   1.437       .  A
C2851      C2854   1.443       .  S
C2852      C2855   1.454       .  S
C2853      N2860   1.156       .  T
C2854      N2859   1.157       .  T
C2855      N2857   1.157       .  T
C2856      N2858   1.157       .  T
C2861      C2862   1.439       .  A
C2861      C2866   1.423       .  A
C2862      C2863   1.433       .  A
C2862      C2867   1.458       .  S
C2863      C2864   1.415       .  A
C2863      C2870   1.444       .  S
C2864      C2865   1.444       .  A
C2865      C2866   1.460       .  A
C2865      C2868   1.445       .  S
C2866      C2869   1.443       .  S
C2867      N2874   1.158       .  T
C2868      N2873   1.157       .  T
C2869      N2871   1.157       .  T
C2870      N2872   1.156       .  T
C2875      C2876   1.416       .  A
C2875      C2880   1.416       .  A
C2876      C2877   1.431       .  A
C2876      C2881   1.451       .  S
C2877      C2878   1.428       .  A
C2877      C2884   1.445       .  S
C2878      C2879   1.428       .  A
C2879      C2880   1.435       .  A
C2879      C2882   1.442       .  S
C2880      C2883   1.451       .  S
C2881      N2888   1.157       .  T
C2882      N2887   1.156       .  T
C2883      N2885   1.157       .  T
C2884      N2886   1.157       .  T
C2889      C2890   1.421       .  A
C2889      C2894   1.416       .  A
C2890      C2891   1.445       .  A
C2890      C2895   1.445       .  S
C2891      C2892   1.429       .  A
C2891      C2898   1.446       .  S
C2892      C2893   1.434       .  A
C2893      C2894   1.435       .  A
C2893      C2896   1.446       .  S
C2894      C2897   1.452       .  S
C2895      N2902   1.156       .  T
C2896      N2901   1.157       .  T
C2897      N2899   1.157       .  T
C2898      N2900   1.157       .  T
C2903      C2904   1.422       .  A
C2903      C2908   1.441       .  A
C2904      C2905   1.455       .  A
C2904      C2909   1.444       .  S
C2905      C2906   1.437       .  A
C2905      C2912   1.445       .  S
C2906      C2907   1.408       .  A
C2907      C2908   1.427       .  A
C2907      C2910   1.450       .  S
C2908      C2911   1.456       .  S
C2909      N2916   1.157       .  T
C2910      N2915   1.157       .  T
C2911      N2913   1.158       .  T
C2912      N2914   1.157       .  T
C2917      C2918   1.419       .  A
C2917      C2922   1.423       .  A
C2918      C2919   1.440       .  A
C2918      C2923   1.450       .  S
C2919      C2920   1.434       .  A
C2919      C2926   1.446       .  S
C2920      C2921   1.425       .  A
C2921      C2922   1.441       .  A
C2921      C2924   1.447       .  S
C2922      C2925   1.443       .  S
C2923      N2930   1.157       .  T
C2924      N2929   1.157       .  T
C2925      N2927   1.155       .  T
C2926      N2928   1.157       .  T
C2931      C2932   1.413       .  A
C2931      C2936   1.429       .  A
C2932      C2933   1.439       .  A
C2932      C2937   1.444       .  S
C2933      C2934   1.427       .  A
C2933      C2940   1.446       .  S
C2934      C2935   1.412       .  A
C2935      C2936   1.408       .  A
C2935      C2938   1.451       .  S
C2936      C2939   1.459       .  S
C2937      N2944   1.157       .  T
C2938      N2943   1.158       .  T
C2939      N2941   1.157       .  T
C2940      N2942   1.157       .  T
C2945      C2946   1.406       .  A
C2945      C2950   1.417       .  A
C2946      C2947   1.399       .  A
C2946      C2951   1.447       .  S
C2947      C2948   1.405       .  A
C2947      C2954   1.452       .  S
C2948      C2949   1.401       .  A
C2949      C2950   1.386       .  A
C2949      C2952   1.457       .  S
C2950      C2953   1.453       .  S
C2951      N2958   1.156       .  T
C2952      N2957   1.157       .  T
C2953      N2955   1.156       .  T
C2954      N2956   1.157       .  T
C2959      C2960   1.413       .  A
C2959      C2964   1.424       .  A
C2960      C2961   1.446       .  A
C2960      C2965   1.443       .  S
C2961      C2962   1.436       .  A
C2961      C2968   1.442       .  S
C2962      C2963   1.426       .  A
C2963      C2964   1.422       .  A
C2963      C2966   1.448       .  S
C2964      C2967   1.455       .  S
C2965      N2972   1.156       .  T
C2966      N2971   1.158       .  T
C2967      N2969   1.157       .  T
C2968      N2970   1.157       .  T
C2973      C2974   1.414       .  A
C2973      C2978   1.421       .  A
C2974      C2975   1.437       .  A
C2974      C2979   1.450       .  S
C2975      C2976   1.437       .  A
C2975      C2982   1.447       .  S
C2976      C2977   1.425       .  A
C2977      C2978   1.436       .  A
C2977      C2980   1.445       .  S
C2978      C2981   1.448       .  S
C2979      N2986   1.157       .  T
C2980      N2985   1.157       .  T
C2981      N2983   1.157       .  T
C2982      N2984   1.157       .  T
C2987      C2988   1.415       .  A
C2987      C2992   1.435       .  A
C2988      C2989   1.443       .  A
C2988      C2993   1.446       .  S
C2989      C2990   1.440       .  A
C2989      C2996   1.442       .  S
C2990      C2991   1.417       .  A
C2991      C2992   1.410       .  A
C2991      C2994   1.448       .  S
C2992      C2995   1.452       .  S
C2993      N3000   1.157       .  T
C2994      N2999   1.158       .  T
C2995      N2997   1.158       .  T
C2996      N2998   1.157       .  T
C3001      C3002   1.417       .  A
C3001      C3006   1.424       .  A
C3002      C3003   1.442       .  A
C3002      C3007   1.447       .  S
C3003      C3004   1.430       .  A
C3003      C3010   1.445       .  S
C3004      C3005   1.421       .  A
C3005      C3006   1.423       .  A
C3005      C3008   1.448       .  S
C3006      C3009   1.453       .  S
C3007      N3014   1.157       .  T
C3008      N3013   1.157       .  T
C3009      N3011   1.157       .  T
C3010      N3012   1.157       .  T
C3015      C3016   1.396       .  A
C3015      C3020   1.416       .  A
C3016      C3017   1.389       .  A
C3016      C3021   1.452       .  S
C3017      C3018   1.417       .  A
C3017      C3024   1.457       .  S
C3018      C3019   1.400       .  A
C3019      C3020   1.404       .  A
C3019      C3022   1.450       .  S
C3020      C3023   1.446       .  S
C3021      N3028   1.157       .  T
C3022      N3027   1.157       .  T
C3023      N3025   1.156       .  T
C3024      N3026   1.158       .  T
C3029      C3030   1.411       .  A
C3029      C3034   1.425       .  A
C3030      C3031   1.442       .  A
C3030      C3035   1.441       .  S
C3031      C3032   1.434       .  A
C3031      C3038   1.445       .  S
C3032      C3033   1.415       .  A
C3033      C3034   1.422       .  A
C3033      C3036   1.444       .  S
C3034      C3037   1.455       .  S
C3035      N3042   1.155       .  T
C3036      N3041   1.156       .  T
C3037      N3039   1.158       .  T
C3038      N3040   1.157       .  T
C3043      C3044   1.420       .  A
C3043      C3048   1.444       .  A
C3044      C3045   1.454       .  A
C3044      C3049   1.441       .  S
C3045      C3046   1.438       .  A
C3045      C3052   1.445       .  S
C3046      C3047   1.410       .  A
C3047      C3048   1.425       .  A
C3047      C3050   1.449       .  S
C3048      C3051   1.456       .  S
C3049      N3056   1.156       .  T
C3050      N3055   1.157       .  T
C3051      N3053   1.158       .  T
C3052      N3054   1.157       .  T
C3057      C3058   1.432       .  A
C3057      C3062   1.425       .  A
C3058      C3059   1.444       .  A
C3058      C3063   1.453       .  S
C3059      C3060   1.434       .  A
C3059      C3066   1.443       .  S
C3060      C3061   1.438       .  A
C3061      C3062   1.466       .  A
C3061      C3064   1.445       .  S
C3062      C3065   1.436       .  S
C3063      N3070   1.157       .  T
C3064      N3069   1.157       .  T
C3065      N3067   1.154       .  T
C3066      N3068   1.157       .  T
C3071      C3072   1.417       .  A
C3071      C3076   1.436       .  A
C3072      C3073   1.448       .  A
C3072      C3077   1.439       .  S
C3073      C3074   1.431       .  A
C3073      C3080   1.441       .  S
C3074      C3075   1.414       .  A
C3075      C3076   1.437       .  A
C3075      C3078   1.448       .  S
C3076      C3079   1.450       .  S
C3077      N3084   1.155       .  T
C3078      N3083   1.157       .  T
C3079      N3081   1.157       .  T
C3080      N3082   1.156       .  T
C3085      C3086   1.413       .  A
C3085      C3090   1.391       .  A
C3086      C3087   1.381       .  A
C3086      C3091   1.457       .  S
C3087      C3088   1.406       .  A
C3087      C3094   1.457       .  S
C3088      C3089   1.404       .  A
C3089      C3090   1.373       .  A
C3089      C3092   1.450       .  S
C3090      C3093   1.447       .  S
C3091      N3098   1.158       .  T
C3092      N3097   1.155       .  T
C3093      N3095   1.154       .  T
C3094      N3096   1.158       .  T
C3099      C3100   1.413       .  A
C3099      C3104   1.407       .  A
C3100      C3101   1.375       .  A
C3100      C3105   1.453       .  S
C3101      C3102   1.412       .  A
C3101      C3108   1.458       .  S
C3102      C3103   1.388       .  A
C3103      C3104   1.373       .  A
C3103      C3106   1.439       .  S
C3104      C3107   1.435       .  S
C3105      N3112   1.158       .  T
C3106      N3111   1.155       .  T
C3107      N3109   1.154       .  T
C3108      N3110   1.158       .  T
C3113      C3114   1.421       .  A
C3113      C3118   1.417       .  A
C3114      C3115   1.401       .  A
C3114      C3119   1.452       .  S
C3115      C3116   1.408       .  A
C3115      C3122   1.456       .  S
C3116      C3117   1.408       .  A
C3117      C3118   1.405       .  A
C3117      C3120   1.452       .  S
C3118      C3121   1.446       .  S
C3119      N3126   1.158       .  T
C3120      N3125   1.157       .  T
C3121      N3123   1.155       .  T
C3122      N3124   1.157       .  T
C3127      C3128   1.413       .  A
C3127      C3132   1.415       .  A
C3128      C3129   1.425       .  A
C3128      C3133   1.448       .  S
C3129      C3130   1.421       .  A
C3129      C3136   1.446       .  S
C3130      C3131   1.423       .  A
C3131      C3132   1.424       .  A
C3131      C3134   1.448       .  S
C3132      C3135   1.450       .  S
C3133      N3140   1.156       .  T
C3134      N3139   1.157       .  T
C3135      N3137   1.157       .  T
C3136      N3138   1.157       .  T
C3141      C3142   1.418       .  A
C3141      C3146   1.434       .  A
C3142      C3143   1.455       .  A
C3142      C3147   1.445       .  S
C3143      C3144   1.442       .  A
C3143      C3150   1.443       .  S
C3144      C3145   1.422       .  A
C3145      C3146   1.429       .  A
C3145      C3148   1.450       .  S
C3146      C3149   1.453       .  S
C3147      N3154   1.157       .  T
C3148      N3153   1.157       .  T
C3149      N3151   1.157       .  T
C3150      N3152   1.157       .  T
C3155      C3156   1.429       .  A
C3155      C3160   1.415       .  A
C3156      C3157   1.427       .  A
C3156      C3161   1.452       .  S
C3157      C3158   1.413       .  A
C3157      C3164   1.448       .  S
C3158      C3159   1.437       .  A
C3159      C3160   1.443       .  A
C3159      C3162   1.445       .  S
C3160      C3163   1.447       .  S
C3161      N3168   1.157       .  T
C3162      N3167   1.157       .  T
C3163      N3165   1.157       .  T
C3164      N3166   1.157       .  T
C3169      C3170   1.398       .  A
C3169      C3174   1.422       .  A
C3170      C3171   1.428       .  A
C3170      C3175   1.443       .  S
C3171      C3172   1.429       .  A
C3171      C3178   1.444       .  S
C3172      C3173   1.427       .  A
C3173      C3174   1.457       .  A
C3173      C3176   1.436       .  S
C3174      C3177   1.433       .  S
C3175      N3182   1.158       .  T
C3176      N3181   1.156       .  T
C3177      N3179   1.155       .  T
C3178      N3180   1.158       .  T
C3183      C3184   1.394       .  A
C3183      C3188   1.402       .  A
C3184      C3185   1.372       .  A
C3184      C3189   1.451       .  S
C3185      C3186   1.416       .  A
C3185      C3192   1.455       .  S
C3186      C3187   1.401       .  A
C3187      C3188   1.388       .  A
C3187      C3190   1.444       .  S
C3188      C3191   1.449       .  S
C3189      N3196   1.153       .  T
C3190      N3195   1.153       .  T
C3191      N3193   1.156       .  T
C3192      N3194   1.157       .  T
C3197      C3198   1.411       .  A
C3197      C3202   1.401       .  A
C3198      C3199   1.395       .  A
C3198      C3203   1.449       .  S
C3199      C3200   1.398       .  A
C3199      C3206   1.450       .  S
C3200      C3201   1.416       .  A
C3201      C3202   1.372       .  A
C3201      C3204   1.458       .  S
C3202      C3205   1.457       .  S
C3203      N3210   1.157       .  T
C3204      N3209   1.156       .  T
C3205      N3207   1.156       .  T
C3206      N3208   1.157       .  T
C3211      C3212   1.416       .  A
C3211      C3216   1.417       .  A
C3212      C3213   1.394       .  A
C3212      C3217   1.453       .  S
C3213      C3214   1.402       .  A
C3213      C3220   1.453       .  S
C3214      C3215   1.390       .  A
C3215      C3216   1.395       .  A
C3215      C3218   1.455       .  S
C3216      C3219   1.439       .  S
C3217      N3224   1.157       .  T
C3218      N3223   1.157       .  T
C3219      N3221   1.156       .  T
C3220      N3222   1.157       .  T
C3225      C3226   1.419       .  A
C3225      C3230   1.407       .  A
C3226      C3227   1.423       .  A
C3226      C3231   1.453       .  S
C3227      C3228   1.423       .  A
C3227      C3234   1.448       .  S
C3228      C3229   1.433       .  A
C3229      C3230   1.431       .  A
C3229      C3232   1.440       .  S
C3230      C3233   1.451       .  S
C3231      N3238   1.157       .  T
C3232      N3237   1.156       .  T
C3233      N3235   1.157       .  T
C3234      N3236   1.156       .  T
C3239      C3240   1.415       .  A
C3239      C3244   1.415       .  A
C3240      C3241   1.437       .  A
C3240      C3245   1.443       .  S
C3241      C3242   1.426       .  A
C3241      C3248   1.444       .  S
C3242      C3243   1.432       .  A
C3243      C3244   1.432       .  A
C3243      C3246   1.447       .  S
C3244      C3247   1.451       .  S
C3245      N3252   1.155       .  T
C3246      N3251   1.156       .  T
C3247      N3249   1.157       .  T
C3248      N3250   1.156       .  T
C3253      C3254   1.421       .  A
C3253      C3258   1.430       .  A
C3254      C3255   1.423       .  A
C3254      C3259   1.446       .  S
C3255      C3256   1.424       .  A
C3255      C3262   1.455       .  S
C3256      C3257   1.416       .  A
C3257      C3258   1.443       .  A
C3257      C3260   1.441       .  S
C3258      C3261   1.442       .  S
C3259      N3266   1.157       .  T
C3260      N3265   1.155       .  T
C3261      N3263   1.156       .  T
C3262      N3264   1.157       .  T
C3267      C3268   1.421       .  A
C3267      C3272   1.409       .  A
C3268      C3269   1.416       .  A
C3268      C3273   1.452       .  S
C3269      C3270   1.410       .  A
C3269      C3276   1.449       .  S
C3270      C3271   1.430       .  A
C3271      C3272   1.428       .  A
C3271      C3274   1.446       .  S
C3272      C3275   1.450       .  S
C3273      N3280   1.157       .  T
C3274      N3279   1.157       .  T
C3275      N3277   1.157       .  T
C3276      N3278   1.157       .  T
C3281      C3282   1.398       .  A
C3281      C3286   1.399       .  A
C3282      C3283   1.382       .  A
C3282      C3287   1.453       .  S
C3283      C3284   1.426       .  A
C3283      C3290   1.457       .  S
C3284      C3285   1.409       .  A
C3285      C3286   1.398       .  A
C3285      C3288   1.442       .  S
C3286      C3289   1.447       .  S
C3287      N3294   1.157       .  T
C3288      N3293   1.157       .  T
C3289      N3291   1.156       .  T
C3290      N3292   1.158       .  T
C3295      C3296   1.408       .  A
C3295      C3300   1.426       .  A
C3296      C3297   1.400       .  A
C3296      C3301   1.447       .  S
C3297      C3298   1.408       .  A
C3297      C3304   1.454       .  S
C3298      C3299   1.399       .  A
C3299      C3300   1.402       .  A
C3299      C3302   1.452       .  S
C3300      C3303   1.449       .  S
C3301      N3308   1.157       .  T
C3302      N3307   1.157       .  T
C3303      N3305   1.157       .  T
C3304      N3306   1.157       .  T
C3309      C3310   1.411       .  A
C3309      C3314   1.402       .  A
C3310      C3311   1.396       .  A
C3310      C3315   1.450       .  S
C3311      C3312   1.406       .  A
C3311      C3318   1.454       .  S
C3312      C3313   1.413       .  A
C3313      C3314   1.397       .  A
C3313      C3316   1.448       .  S
C3314      C3317   1.450       .  S
C3315      N3322   1.157       .  T
C3316      N3321   1.155       .  T
C3317      N3319   1.157       .  T
C3318      N3320   1.157       .  T
C3323      C3324   1.411       .  A
C3323      C3328   1.402       .  A
C3324      C3325   1.401       .  A
C3324      C3329   1.454       .  S
C3325      C3326   1.410       .  A
C3325      C3332   1.453       .  S
C3326      C3327   1.423       .  A
C3327      C3328   1.401       .  A
C3327      C3330   1.453       .  S
C3328      C3331   1.454       .  S
C3329      N3336   1.157       .  T
C3330      N3335   1.158       .  T
C3331      N3333   1.157       .  T
C3332      N3334   1.157       .  T
