geometry optimzed in LAMMPS
_audit_creation_date              2020-11-30 
_audit_creation_method            'lammps2cif' 
_symmetry_space_group_name_H-M    'P1' 
_symmetry_Int_Tables_number       1 
_symmetry_cell_setting            triclinic 
loop_ 
_symmetry_equiv_pos_as_xyz 
  x,y,z 
_cell_length_a                    38.00427612817989 
_cell_length_b                    38.00467101759295 
_cell_length_c                    37.27526716808914 
_cell_angle_alpha                 89.84738589051716 
_cell_angle_beta                  89.91521687999126 
_cell_angle_gamma                 122.6691913294296 
loop_ 
_atom_site_label 
_atom_site_type_symbol 
_atom_site_fract_x 
_atom_site_fract_y 
_atom_site_fract_z 
_atom_site_charge 
C1          C  0.51819577  0.89136215  0.03086586     0.03450
C2          C  0.50760137  0.90179383  0.99823085    -0.12700
C3          C  0.50910503  0.88394986  0.46617587     0.00950
C4          C  0.51728726  0.85230045  0.46653764    -0.11220
C5          C  0.52742611  0.84017830  0.49881800     0.03450
C6          C  0.52950714  0.86163399  0.03064980    -0.10640
H7          H  0.49932502  0.92495392  0.99728047     0.09040
H8          H  0.51563218  0.83777403  0.44122832     0.06570
H9          H  0.54087818  0.85633126  0.05524000     0.06420
C10         C  0.29439529  0.90955993  0.03180072     0.03450
C11         C  0.25549691  0.87144368  0.03263118    -0.12700
C12         C  0.23168081  0.85356667  0.50096317     0.00950
C13         C  0.24906100  0.87567885  0.46831686    -0.11220
C14         C  0.28852640  0.91314459  0.46713758     0.03450
C15         C  0.31029493  0.93022825  0.99906101    -0.10640
H16         H  0.24556565  0.85552598  0.05812681     0.09040
H17         H  0.23307905  0.86438337  0.44311846     0.06570
H18         H  0.34075787  0.95903817  0.99828118     0.06420
O19         O  0.37950028  0.97837856  0.30964338    -0.74970
O20         O  0.43054513  0.01337480  0.35163639    -0.53880
C21         C  0.39239578  0.98779485  0.34224830     0.78760
O22         O  0.51117534  0.96576292  0.18797603    -0.59570
O23         O  0.50616153  0.00884352  0.14869338    -0.52600
C24         C  0.51036204  0.97827377  0.15589899     0.70770
O25         O  0.50485449  0.95968292  0.30997070    -0.74130
O26         O  0.49999780  0.00080696  0.35178106    -0.54690
C27         C  0.50268412  0.96984102  0.34245301     0.76780
O28         O  0.38279618  0.98084808  0.18833232    -0.59270
O29         O  0.43673105  0.01683605  0.14875910    -0.52390
C30         C  0.39806943  0.99018573  0.15629928     0.73370
Zr31       Zr  0.40988805  0.00054788  0.24947907     2.54710
O32         O  0.36129852  0.92505613  0.24898494    -0.79840
O33         O  0.35362796  0.01328065  0.24798958    -0.93250
Zr34       Zr  0.50683406  0.98633297  0.24968588     2.64680
O35         O  0.45940662  0.91067017  0.24782232    -0.98210
O36         O  0.56844048  0.98195128  0.25037336    -0.80270
O37         O  0.45687565  0.99136053  0.28393428    -0.83630
O38         O  0.45882310  0.99392446  0.21555576    -2.18340
O39         O  0.48614613  0.14892716  0.19221288    -0.67020
O40         O  0.49727570  0.11171091  0.15076729    -0.51580
C41         C  0.49134977  0.14075166  0.15982352     0.71750
O42         O  0.61259707  0.12811129  0.31392173    -0.59920
O43         O  0.55845676  0.09449722  0.35373756    -0.51900
C44         C  0.59737147  0.11918539  0.34592843     0.73560
O45         O  0.61690240  0.12610656  0.19310090    -0.71320
O46         O  0.56516908  0.09336699  0.15136211    -0.50000
C47         C  0.60374420  0.11605373  0.16064978     0.74940
O48         O  0.48477782  0.14574559  0.31405358    -0.66650
O49         O  0.48806943  0.10173226  0.35352938    -0.53850
C50         C  0.48445805  0.13262242  0.34611646     0.73320
Zr51       Zr  0.48872349  0.12470380  0.25257738     2.77540
O52         O  0.53833408  0.20003892  0.25438692    -0.97400
O53         O  0.42881507  0.13182396  0.25325623    -0.78220
Zr54       Zr  0.58541815  0.11026013  0.25293661     2.70070
O55         O  0.63122462  0.18610112  0.25100470    -0.79470
O56         O  0.64374624  0.10082054  0.25722297    -0.98550
Zr57       Zr  0.49565081  0.05303570  0.31879506     2.21500
Zr58       Zr  0.49960404  0.05805156  0.18366411     2.11130
O59         O  0.53884695  0.11988489  0.21836812    -2.47240
O60         O  0.53669254  0.11713168  0.28712940    -0.79260
O61         O  0.44934307  0.06402783  0.21641512    -0.71460
O62         O  0.54580256  0.04690563  0.28588088    -2.32410
O63         O  0.44748893  0.06144242  0.28525092    -2.28620
O64         O  0.54769773  0.04955513  0.21701904    -0.73210
H65         H  0.44422102  0.97047612  0.19945742     0.78780
H66         H  0.56391219  0.04373540  0.30185456     0.79870
H67         H  0.55474175  0.14419198  0.20316591     0.82090
H68         H  0.42840490  0.06359216  0.30082778     0.79700
H69         H  0.58426071  0.99783404  0.27187060     0.42740
H70         H  0.63854891  0.08047884  0.23815206     0.41710
H71         H  0.61660007  0.19611474  0.26564959     0.41390
H72         H  0.55658801  0.20639868  0.23319066     0.39320
H73         H  0.40726564  0.10779318  0.23908243     0.42450
H74         H  0.35594724  0.02739207  0.27096182     0.37240
H75         H  0.37695329  0.91394008  0.26027267     0.43350
H76         H  0.44027885  0.90546759  0.22764858     0.39770
H77         H  0.52150153  0.21202980  0.24845563     0.44690
H78         H  0.32779584  0.98518759  0.25054524     0.43410
H79         H  0.47686440  0.90029049  0.23925115     0.43540
H80         H  0.66826876  0.12760629  0.24863516     0.43900
C81         C  0.47987582  0.22380097  0.03548306     0.03450
C82         C  0.48170331  0.20578349  0.00355669    -0.12700
C83         C  0.47216206  0.21661842  0.47064995     0.00950
C84         C  0.46107152  0.24642177  0.47011280    -0.11220
C85         C  0.46239562  0.26785558  0.50160655     0.03450
C86         C  0.47172071  0.25558409  0.03435867    -0.10640
H87         H  0.48974806  0.18244106  0.00458147     0.09040
H88         H  0.45088249  0.25198110  0.44497849     0.06570
H89         H  0.47376158  0.27076943  0.05937321     0.06420
C90         C  0.70746611  0.17618575  0.03480454     0.03450
C91         C  0.68437150  0.16333099  0.00295175    -0.12700
C92         C  0.70275237  0.18326573  0.47043214     0.00950
C93         C  0.74423309  0.21719707  0.46984158    -0.11220
C94         C  0.76824679  0.23114212  0.50154894     0.03450
C95         C  0.74974121  0.20882490  0.03363653    -0.10640
H96         H  0.65150245  0.13880765  0.00352837     0.09040
H97         H  0.75623816  0.23390651  0.44477482     0.06570
H98         H  0.76735816  0.21753837  0.05831771     0.06420
O99         O  0.08201870  0.53765760  0.31432237    -0.74970
O100        O  0.03680655  0.53907868  0.35329958    -0.53880
C101        C  0.06947660  0.53850059  0.34636247     0.78760
O102        O  0.06494414  0.66180989  0.19334276    -0.59570
O103        O  0.03028527  0.61056854  0.15148360    -0.52600
C104        C  0.05623666  0.64864971  0.16076804     0.70770
O105        O  0.06298439  0.65748111  0.31472946    -0.74130
O106        O  0.02377930  0.60466223  0.35460549    -0.54690
C107        C  0.05167064  0.64291069  0.34681178     0.76780
O108        O  0.08256303  0.53596477  0.19249665    -0.59270
O109        O  0.03951886  0.53859205  0.15140426    -0.52390
C110        C  0.07110153  0.53650743  0.16009091     0.73370
Zr111      Zr  0.05686859  0.53529234  0.25289801     2.54710
O112        O  0.13266047  0.58151858  0.25265291    -0.79840
O113        O  0.05989612  0.47289969  0.25367656    -0.93250
Zr114      Zr  0.04203094  0.63162751  0.25353124     2.64680
O115        O  0.11731702  0.68154836  0.25566096    -0.98210
O116        O  0.02834243  0.68725399  0.25401876    -0.80270
O117        O  0.04887260  0.58280931  0.28740317    -0.83630
O118        O  0.05112961  0.58486279  0.21890811    -2.18340
O119        O  0.91567816  0.42870778  0.18888868    -0.67020
O120        O  0.94790314  0.48330071  0.14943984    -0.51580
C121        C  0.92383786  0.44422811  0.15690084     0.71750
O122        O  0.89075780  0.54890637  0.31220311    -0.59920
O123        O  0.93088706  0.54131303  0.35299428    -0.51900
C124        C  0.89994324  0.54438790  0.34448796     0.73560
O125        O  0.89710873  0.55834378  0.19066678    -0.71320
O126        O  0.94154666  0.55695744  0.15028875    -0.50000
C127        C  0.91037374  0.55997494  0.15845883     0.74940
O128        O  0.91573187  0.42429150  0.31033306    -0.66650
O129        O  0.94961198  0.47604519  0.35188280    -0.53850
C130        C  0.92633749  0.43742647  0.34278111     0.73320
Zr131      Zr  0.93259761  0.45585775  0.25026241     2.77540
O132        O  0.85667349  0.41046891  0.25148817    -0.97400
O133        O  0.94120193  0.39693080  0.24777991    -0.78220
Zr134      Zr  0.91784216  0.55250641  0.25159225     2.70070
O135        O  0.84230575  0.50519117  0.24789163    -0.79470
O136        O  0.91310196  0.61375384  0.25529709    -0.98550
Zr137      Zr  0.98502705  0.54159229  0.31927035     2.21500
Zr138      Zr  0.98897990  0.54591055  0.18440045     2.11130
O139        O  0.92518067  0.50468977  0.21666950    -2.47240
O140        O  0.92293928  0.50221450  0.28520421    -0.79260
O141        O  0.99582395  0.49604360  0.21706948    -0.71460
O142        O  0.97886028  0.59203543  0.28701464    -2.32410
O143        O  0.99394460  0.49383698  0.28567460    -2.28620
O144        O  0.98068940  0.59388304  0.21817406    -0.73210
H145        H  0.07548705  0.60043237  0.20372825     0.78780
H146        H  0.97558848  0.60991040  0.30318125     0.79870
H147        H  0.90170002  0.49013099  0.20057146     0.82090
H148        H  0.99692624  0.47518932  0.30114143     0.79700
H149        H  0.01360980  0.68360090  0.27699172     0.42740
H150        H  0.93190293  0.63258920  0.23606460     0.41710
H151        H  0.83655037  0.47899756  0.25924475     0.41390
H152        H  0.84726709  0.41865081  0.23009013     0.39320
H153        H  0.96899569  0.40848425  0.23656603     0.42450
H154        H  0.04965569  0.46050216  0.27779007     0.37240
H155        H  0.13792974  0.60912072  0.25949101     0.43350
H156        H  0.12888243  0.67234392  0.23671922     0.39770
H157        H  0.85083329  0.38239004  0.24569362     0.44690
H158        H  0.09014663  0.48375189  0.25412375     0.43410
H159        H  0.12153662  0.70802229  0.24642465     0.43540
H160        H  0.88461548  0.60395376  0.24667644     0.43900
C161        C  0.16260678  0.53590878  0.03651138     0.03450
C162        C  0.15089669  0.54523005  0.00428744    -0.12700
C163        C  0.15918403  0.53336425  0.47127426     0.00950
C164        C  0.18519685  0.51750965  0.47127543    -0.11220
C165        C  0.20497895  0.51628874  0.50305603     0.03450
C166        C  0.19150226  0.52393411  0.03600477    -0.10640
H167        H  0.13256849  0.55921025  0.00570662     0.09040
H168        H  0.18884853  0.50497586  0.44674301     0.06570
H169        H  0.20206676  0.52009292  0.06162496     0.06420
C170        C  0.85960663  0.33701007  0.03265620     0.03450
C171        C  0.82440486  0.29612881  0.03338748    -0.12700
C172        C  0.80981556  0.27180609  0.50189876     0.00950
C173        C  0.83238352  0.28937340  0.46977098    -0.11220
C174        C  0.86495416  0.33158921  0.46794561     0.03450
C175        C  0.87914317  0.35480083  0.99975937    -0.10640
H176        H  0.80725083  0.28486801  0.05831547     0.09040
H177        H  0.82365314  0.27106045  0.44551658     0.06570
H178        H  0.90444793  0.38739459  0.99882193     0.06420
C179        C  0.82807907  0.57281295  0.03336113     0.03450
C180        C  0.83944974  0.56236843  0.50132340    -0.12700
C181        C  0.81860598  0.55857983  0.46922555     0.00950
C182        C  0.78462653  0.56355397  0.46972526    -0.11220
C183        C  0.77346567  0.57614854  0.50112430     0.03450
C184        C  0.79602112  0.58077850  0.03295729    -0.10640
H185        H  0.86480214  0.55717326  0.50141453     0.09040
H186        H  0.76695672  0.55684102  0.44533174     0.06570
H187        H  0.78972050  0.59118800  0.05765375     0.06420
C188        C  0.13692129  0.74970931  0.03557496     0.03450
C189        C  0.17162460  0.79098873  0.03461473    -0.12700
C190        C  0.19104288  0.81091576  0.50170404     0.00950
C191        C  0.17153467  0.78880635  0.46962890    -0.11220
C192        C  0.13677039  0.74731159  0.47026200     0.03450
C193        C  0.12121938  0.72778605  0.00352838    -0.10640
H194        H  0.18238075  0.80704288  0.05988847     0.09040
H195        H  0.18259680  0.80326213  0.44384275     0.06570
H196        H  0.09623958  0.69509410  0.00464204     0.06420
O197        O  0.60262011  0.58241837  0.18874117    -0.74970
O198        O  0.55147913  0.56859510  0.14859585    -0.53880
C199        C  0.58805824  0.57697317  0.15657879     0.78760
O200        O  0.46370365  0.44157173  0.30940922    -0.59570
O201        O  0.47254058  0.48998098  0.35070817    -0.52600
C202        C  0.46563609  0.45411900  0.34180635     0.70770
O203        O  0.46368746  0.44302600  0.18823876    -0.74130
O204        O  0.47393376  0.49286892  0.14779945    -0.54690
C205        C  0.46599961  0.45643036  0.15597941     0.76780
O206        O  0.60367968  0.58422405  0.31080733    -0.59270
O207        O  0.55176510  0.56847623  0.35087384    -0.52390
C208        C  0.58890430  0.57820232  0.34305264     0.73370
Zr209      Zr  0.57658165  0.57969347  0.24975724     2.54710
O210        O  0.61633487  0.54656825  0.25019220    -0.79840
O211        O  0.63960506  0.64962183  0.24925652    -0.93250
Zr212      Zr  0.46762889  0.46896567  0.24915385     2.64680
O213        O  0.50394298  0.43228788  0.24700462    -0.98210
O214        O  0.39925809  0.40390360  0.24988772    -0.80270
O215        O  0.52248949  0.52438083  0.21530808    -0.83630
O216        O  0.52221510  0.52350229  0.28354296    -2.18340
O217        O  0.52344979  0.66514705  0.31069974    -0.67020
O218        O  0.51155267  0.61489949  0.35150409    -0.51580
C219        C  0.52149885  0.65200344  0.34297839     0.71750
O220        O  0.37856309  0.52167070  0.18967952    -0.59920
O221        O  0.42840664  0.53334418  0.14853621    -0.51900
C222        C  0.39157399  0.52390950  0.15733560     0.73560
O223        O  0.37856292  0.52129327  0.31066387    -0.71320
O224        O  0.42863915  0.53360070  0.35162917    -0.50000
C225        C  0.39187952  0.52435802  0.34295726     0.74940
O226        O  0.51802593  0.66415872  0.18947490    -0.66650
O227        O  0.50912254  0.61545871  0.14844676    -0.53850
C228        C  0.51635432  0.65143889  0.15716852     0.73320
Zr229      Zr  0.51472666  0.63747517  0.24996358     2.77540
O230        O  0.47751297  0.67328157  0.25142899    -0.97400
O231        O  0.58259313  0.70298520  0.24772011    -0.78220
Zr232      Zr  0.40606243  0.52732494  0.25007286     2.70070
O233        O  0.36792003  0.56214625  0.25012521    -0.79470
O234        O  0.34217194  0.45806993  0.24969969    -0.98550
Zr235      Zr  0.49091121  0.55362401  0.18221507     2.21500
Zr236      Zr  0.49070210  0.55241536  0.31750496     2.11130
O237        O  0.45992177  0.58264265  0.28442368    -2.47240
O238        O  0.45983888  0.58313924  0.21555107    -0.79260
O239        O  0.54611682  0.60892494  0.28448638    -0.71460
O240        O  0.43573109  0.49732484  0.21536295    -2.32410
O241        O  0.54650943  0.60962527  0.21521676    -2.28620
O242        O  0.43567640  0.49664877  0.28414510    -0.73210
H243        H  0.53402947  0.51198559  0.29889312     0.78780
H244        H  0.41486700  0.47625239  0.19961717     0.79870
H245        H  0.44832486  0.59399314  0.30021861     0.82090
H246        H  0.56728083  0.63080043  0.19929710     0.79700
H247        H  0.38504820  0.40511259  0.22811802     0.42740
H248        H  0.34506624  0.44337809  0.27034634     0.41710
H249        H  0.38732608  0.58962302  0.23871362     0.41390
H250        H  0.45792649  0.66065637  0.27195221     0.39320
H251        H  0.60032439  0.69857854  0.26416349     0.42450
H252        H  0.63999331  0.66114583  0.22530276     0.37240
H253        H  0.59609115  0.51754278  0.24234436     0.43350
H254        H  0.52522837  0.44516420  0.26616841     0.39770
H255        H  0.49864230  0.70203310  0.25931731     0.44690
H256        H  0.66277525  0.64487558  0.24840833     0.43410
H257        H  0.48328354  0.40378451  0.25595859     0.43540
H258        H  0.32000122  0.46278938  0.25707145     0.43900
C259        C  0.45735629  0.36040775  0.46682165     0.03450
C260        C  0.45875590  0.32422979  0.46739312    -0.12700
C261        C  0.45640942  0.30405088  0.50020341     0.00950
C262        C  0.45048604  0.32044726  0.03206728    -0.11220
C263        C  0.45354085  0.35894486  0.03214611     0.03450
C264        C  0.45796216  0.37892227  0.49931213    -0.10640
H265        H  0.46191002  0.31262008  0.44204063     0.09040
H266        H  0.44346181  0.30364439  0.05707429     0.06570
H267        H  0.46196986  0.40936703  0.49883267     0.06420
C268        C  0.29364194  0.50519025  0.46765347     0.03450
C269        C  0.31020024  0.50127645  0.49976728    -0.12700
C270        C  0.29189767  0.50001297  0.03270628     0.00950
C271        C  0.25581332  0.50144896  0.03326878    -0.11220
C272        C  0.23955970  0.50785781  0.50157456     0.03450
C273        C  0.25942886  0.50983724  0.46870746    -0.10640
H274        H  0.33878418  0.50144105  0.49907349     0.09040
H275        H  0.24178470  0.49856867  0.05910287     0.06570
H276        H  0.24957482  0.51592747  0.44359731     0.06420
C277        C  0.68869137  0.59443326  0.46749034     0.03450
C278        C  0.72280873  0.58952551  0.46783795    -0.12700
C279        C  0.73867119  0.58427575  0.50059411     0.00950
C280        C  0.71941359  0.58488373  0.03290945    -0.11220
C281        C  0.68694123  0.59204524  0.03277831     0.03450
C282        C  0.67260645  0.59776442  0.50018698    -0.10640
H283        H  0.73544283  0.58834095  0.44231986     0.09040
H284        H  0.72757885  0.57758102  0.05834260     0.06570
H285        H  0.64673629  0.60224571  0.50027116     0.06420
C286        C  0.54045546  0.75194816  0.46666936     0.03450
C287        C  0.54156398  0.78953274  0.46721414    -0.12700
C288        C  0.53432719  0.80463283  0.49930491     0.00950
C289        C  0.53103438  0.78350952  0.03161740    -0.11220
C290        C  0.53402492  0.74832290  0.03184400     0.03450
C291        C  0.53683479  0.73183876  0.49926689    -0.10640
H292        H  0.54775784  0.80640680  0.44230847     0.09040
H293        H  0.52551502  0.79350807  0.05689701     0.06570
H294        H  0.53487031  0.70233154  0.49936060     0.06420
C295        C  0.31460224  0.50756694  0.43332507    -0.05140
C296        C  0.32904808  0.54227670  0.41053941    -0.32570
C297        C  0.35335441  0.54741300  0.38029562     0.36680
C298        C  0.36321119  0.51751125  0.37245877    -0.05500
C299        C  0.34773314  0.48219443  0.39445008    -0.32470
C300        C  0.32315542  0.47683002  0.42447606     0.36590
H301        H  0.32297841  0.56630058  0.41704053     0.16960
O302        O  0.36868535  0.58250008  0.35933722    -0.59970
H303        H  0.35511655  0.45897215  0.38851029     0.16880
O304        O  0.30825779  0.44181147  0.44542806    -0.60060
H305        H  0.27952581  0.42182104  0.43663907     0.43970
H306        H  0.39659436  0.60308455  0.36938600     0.43920
C307        C  0.31330363  0.50225059  0.06669806    -0.05140
C308        C  0.32003845  0.53218693  0.09257957    -0.32570
C309        C  0.34405503  0.53833846  0.12312257     0.36680
C310        C  0.36219748  0.51482440  0.12789500    -0.05500
C311        C  0.35384909  0.48358648  0.10314747    -0.32470
C312        C  0.32972253  0.47719580  0.07261186     0.36590
H313        H  0.30803382  0.55205842  0.08843282     0.16960
O314        O  0.35181384  0.56916856  0.14693117    -0.59970
H315        H  0.36608977  0.46408746  0.10758693     0.16970
O316        O  0.32150419  0.44584205  0.04917175    -0.60060
H317        H  0.34870292  0.45472595  0.03776401     0.43970
H318        H  0.32850869  0.55551455  0.16451112     0.43920
C319        C  0.53054538  0.68139193  0.37257309    -0.05140
C320        C  0.51182079  0.70463100  0.37293856    -0.32570
C321        C  0.51613630  0.72924198  0.40262915     0.36680
C322        C  0.54043054  0.73167360  0.43236807    -0.05500
C323        C  0.56135088  0.71039549  0.43067401    -0.32470
C324        C  0.55588934  0.68481332  0.40151513     0.36590
H325        H  0.49190767  0.70195207  0.35093550     0.16960
O326        O  0.49356577  0.74773771  0.40349713    -0.59970
H327        H  0.58103423  0.71248438  0.45262835     0.16970
O328        O  0.57582215  0.66359597  0.40135352    -0.60060
H329        H  0.55799406  0.63822332  0.41615443     0.43970
H330        H  0.50810057  0.77176384  0.38666218     0.43920
C331        C  0.52325717  0.67998559  0.12756937    -0.05140
C332        C  0.55543371  0.69074141  0.10296373    -0.32570
C333        C  0.56026674  0.71445223  0.07245702     0.36680
C334        C  0.53205373  0.72703771  0.06589397    -0.05500
C335        C  0.50068837  0.71740215  0.09132107    -0.32470
C336        C  0.49624694  0.69406467  0.12206239     0.36590
H337        H  0.57669910  0.68042347  0.10730308     0.16960
O338        O  0.59321597  0.72608679  0.04961124    -0.59970
H339        H  0.47861100  0.72661773  0.08671465     0.16970
O340        O  0.46440988  0.68370774  0.14578399    -0.60060
H341        H  0.44051938  0.65640637  0.13740645     0.43970
H342        H  0.58679412  0.70000881  0.03759286     0.43920
C343        C  0.66505494  0.58978144  0.43401172    -0.05140
C344        C  0.62135563  0.56297042  0.43505176    -0.32570
C345        C  0.59673089  0.55895860  0.40577686     0.36680
C346        C  0.61548044  0.58141966  0.37376298    -0.05500
C347        C  0.65941212  0.60690418  0.37189397    -0.32470
C348        C  0.68421632  0.61119154  0.40173096     0.36590
H349        H  0.60588624  0.54487038  0.45901151     0.16960
O350        O  0.55421924  0.53178746  0.40853968    -0.59970
H351        H  0.67454115  0.62434206  0.34760470     0.16970
O352        O  0.72678590  0.63791992  0.39962467    -0.60060
H353        H  0.73658347  0.62320651  0.38476360     0.43970
H354        H  0.54418099  0.54708729  0.42222839     0.43920
C355        C  0.61440569  0.57956287  0.12614265    -0.05140
C356        C  0.65799086  0.60789071  0.12655870    -0.32570
C357        C  0.68247276  0.61193539  0.09661807     0.36680
C358        C  0.66329018  0.58742825  0.06591240    -0.05500
C359        C  0.62007329  0.55820017  0.06612092    -0.32470
C360        C  0.59568316  0.55418727  0.09568247     0.36590
H361        H  0.67290051  0.62770785  0.14965692     0.16960
O362        O  0.72459575  0.64134962  0.09685537    -0.59970
H363        H  0.60502055  0.53840077  0.04301486     0.16970
O364        O  0.55363465  0.52432005  0.09494463    -0.60060
H365        H  0.54110312  0.53642298  0.08001269     0.43970
H366        H  0.73719170  0.62812849  0.11006941     0.43920
C367        C  0.46024265  0.42576147  0.37124235    -0.05140
C368        C  0.43206094  0.41821074  0.39889743    -0.32570
C369        C  0.42936279  0.39508680  0.42917860     0.36680
C370        C  0.45613083  0.38011953  0.43267410    -0.05500
C371        C  0.48309567  0.38619391  0.40411540    -0.32470
C372        C  0.48489914  0.40845568  0.37335252     0.36590
H373        H  0.41222429  0.43056793  0.39712233     0.16960
O374        O  0.39981111  0.38641651  0.45493030    -0.59970
H375        H  0.50394527  0.37508560  0.40616795     0.16970
O376        O  0.51296194  0.41567679  0.34667770    -0.60060
H377        H  0.49782894  0.39133555  0.33041939     0.43970
H378        H  0.40857192  0.41367260  0.46599915     0.43920
C379        C  0.45935950  0.42824597  0.12591519    -0.05140
C380        C  0.47597289  0.40308232  0.12732044    -0.32570
C381        C  0.47349484  0.37930396  0.09753886     0.36680
C382        C  0.45275294  0.37934872  0.06605552    -0.05500
C383        C  0.43387435  0.40257055  0.06588477    -0.32470
C384        C  0.43831929  0.42786728  0.09476899     0.36590
H385        H  0.49287500  0.40353968  0.15088670     0.16960
O386        O  0.49426498  0.35895737  0.09860981    -0.59970
H387        H  0.41661255  0.40233685  0.04269024     0.16970
O388        O  0.42175641  0.45206800  0.09226549    -0.60060
H389        H  0.44231103  0.47695341  0.07804081     0.43970
H390        H  0.47756368  0.33474121  0.11490789     0.43920
C391        C  0.84926116  0.57394600  0.06727197    -0.05140
C392        C  0.82543642  0.54944380  0.09677081    -0.32570
C393        C  0.84484963  0.54557168  0.12723005     0.36680
C394        C  0.88873465  0.56607708  0.12835551    -0.05500
C395        C  0.91249291  0.59181463  0.09946133    -0.32470
C396        C  0.89320259  0.59606958  0.06925248     0.36590
H397        H  0.79160975  0.53186913  0.09557836     0.16960
O398        O  0.82055330  0.51935649  0.15454983    -0.59970
H399        H  0.94627097  0.60850551  0.10015762     0.16970
O400        O  0.91750105  0.62251483  0.04199062    -0.60060
H401        H  0.93133910  0.60935250  0.03084044     0.43970
H402        H  0.81434912  0.53649719  0.17009787     0.43920
C403        C  0.87387947  0.54354505  0.37434183    -0.05140
C404        C  0.85927298  0.57044520  0.37371983    -0.32570
C405        C  0.83955538  0.57440250  0.40384458     0.36680
C406        C  0.83361721  0.55068651  0.43512793    -0.05500
C407        C  0.84584266  0.52178272  0.43473024    -0.32470
C408        C  0.86625253  0.51846999  0.40493655     0.36590
H409        H  0.86520968  0.59020698  0.35054317     0.16960
O410        O  0.82951992  0.60408307  0.40344574    -0.59970
H411        H  0.84065931  0.50246976  0.45806287     0.16970
O412        O  0.87840993  0.49040270  0.40588715    -0.60060
H413        H  0.90439312  0.50402957  0.42033184     0.43970
H414        H  0.80419157  0.59224942  0.38828052     0.43920
C415        C  0.90437406  0.41542636  0.12621326    -0.05140
C416        C  0.89751089  0.37522920  0.12755879    -0.32570
C417        C  0.88215882  0.34893875  0.09754303     0.36680
C418        C  0.87349531  0.36280947  0.06560884    -0.05500
C419        C  0.87873064  0.40225630  0.06484081    -0.32470
C420        C  0.89403833  0.42848079  0.09467642     0.36590
H421        H  0.90533210  0.36466774  0.15150823     0.16960
O422        O  0.87804138  0.31080827  0.09897792    -0.59970
H423        H  0.87101333  0.41289561  0.04087404     0.16970
O424        O  0.89763250  0.46638074  0.09307959    -0.60060
H425        H  0.92370179  0.48500983  0.07935627     0.43970
H426        H  0.85189602  0.29237956  0.11267161     0.43920
C427        C  0.91140861  0.40617919  0.37195756    -0.05140
C428        C  0.86903785  0.37438832  0.37451688    -0.32570
C429        C  0.85368347  0.34808127  0.40470631     0.36680
C430        C  0.88111486  0.35317134  0.43277194    -0.05500
C431        C  0.92399421  0.38305207  0.42868071    -0.32470
C432        C  0.93907041  0.40948274  0.39874820     0.36590
H433        H  0.84738418  0.37141817  0.35404592     0.16960
O434        O  0.81138225  0.32016215  0.40789493    -0.59970
H435        H  0.94578582  0.38696351  0.44940298     0.16970
O436        O  0.98100894  0.43877622  0.39600415    -0.60060
H437        H  0.98514421  0.46264908  0.41018556     0.43970
H438        H  0.80482927  0.29685782  0.39152393     0.43920
C439        C  0.09556707  0.53440920  0.13028381    -0.05140
C440        C  0.07421482  0.51084245  0.09996026    -0.32570
C441        C  0.09599140  0.51005154  0.07018463     0.36680
C442        C  0.14012010  0.53401861  0.06976618    -0.05500
C443        C  0.16169721  0.55647489  0.10055518    -0.32470
C444        C  0.13967300  0.55684562  0.13073974     0.36590
H445        H  0.04033949  0.49287643  0.09932741     0.16960
O446        O  0.07373896  0.48594456  0.04132150    -0.59970
H447        H  0.19555658  0.57478294  0.10074484     0.16970
O448        O  0.16154140  0.58045601  0.15990729    -0.60060
H449        H  0.16493265  0.60795279  0.15597416     0.43970
H450        H  0.07245871  0.45935742  0.04448912     0.43920
C451        C  0.09336555  0.53820324  0.37792440    -0.05140
C452        C  0.13166172  0.54122769  0.37338884    -0.32570
C453        C  0.15422000  0.54066281  0.40307845     0.36680
C454        C  0.13736573  0.53453814  0.43813267    -0.05500
C455        C  0.09855603  0.53050634  0.44210324    -0.32470
C456        C  0.07798155  0.53488647  0.41317884     0.36590
H457        H  0.14490510  0.54527591  0.34679994     0.16960
O458        O  0.19352813  0.54849909  0.39752434    -0.59970
H459        H  0.08364409  0.52442412  0.46806777     0.16970
O460        O  0.04449934  0.53879937  0.41976913    -0.60060
H461        H  0.02902429  0.52132874  0.44094434     0.43970
H462        H  0.18935849  0.52386640  0.38436910     0.43920
C463        C  0.11672668  0.72842726  0.06994165    -0.05140
C464        C  0.14084152  0.72769654  0.09815091    -0.32570
C465        C  0.12154081  0.70332016  0.12890817     0.36680
C466        C  0.07764605  0.67905012  0.13150408    -0.05500
C467        C  0.05369613  0.68121912  0.10414973    -0.32470
C468        C  0.07283185  0.70586047  0.07366517     0.36590
H469        H  0.17455621  0.74458090  0.09565636     0.16960
O470        O  0.14562419  0.70091525  0.15495043    -0.59970
H471        H  0.01992885  0.66323707  0.10621454     0.16970
O472        O  0.04849392  0.70820800  0.04777277    -0.60060
H473        H  0.03246722  0.68011023  0.03664170     0.43970
H474        H  0.15250743  0.72388798  0.17182450     0.43920
C475        C  0.07281304  0.67203278  0.37697665    -0.05140
C476        C  0.11610562  0.70127062  0.37555466    -0.32570
C477        C  0.13756429  0.72662806  0.40516975     0.36680
C478        C  0.11541309  0.72370516  0.43675060    -0.05500
C479        C  0.07161148  0.69579892  0.43708554    -0.32470
C480        C  0.05055510  0.66970548  0.40799135     0.36590
H481        H  0.13374912  0.70312147  0.35196832     0.16960
O482        O  0.18035606  0.75165121  0.40376545    -0.59970
H483        H  0.05338269  0.69360915  0.46032780     0.16970
O484        O  0.00818234  0.64167718  0.41036624    -0.60060
H485        H  0.99549321  0.65620162  0.39966261     0.43970
H486        H  0.18672660  0.77441260  0.38664546     0.43920
C487        C  0.63485733  0.13115101  0.13155847    -0.05140
C488        C  0.63151705  0.10270748  0.10582331    -0.32570
C489        C  0.65644561  0.11654568  0.07491402     0.36680
C490        C  0.68571991  0.15959550  0.06968696    -0.05500
C491        C  0.69106204  0.18776024  0.09683242    -0.32470
C492        C  0.66603457  0.17374563  0.12771497     0.36590
H493        H  0.60914798  0.06964098  0.10960514     0.16960
O494        O  0.65239396  0.08788049  0.05016539    -0.59970
H495        H  0.71318858  0.22102318  0.09327306     0.16970
O496        O  0.67018026  0.20224197  0.15260827    -0.60060
H497        H  0.69186388  0.20540305  0.16946709     0.43970
H498        H  0.62394748  0.07519424  0.03998452     0.43920
C499        C  0.62644111  0.13863481  0.37619782    -0.05140
C500        C  0.61527496  0.15435322  0.40503334    -0.32570
C501        C  0.64066685  0.17026607  0.43537878     0.36680
C502        C  0.67756081  0.17014061  0.43733787    -0.05500
C503        C  0.68958264  0.15585438  0.40799915    -0.32470
C504        C  0.66434550  0.14028106  0.37743667     0.36590
H505        H  0.58664834  0.15413264  0.40407385     0.16960
O506        O  0.62981076  0.18681683  0.46267583    -0.59970
H507        H  0.71794374  0.15562480  0.40926932     0.16970
O508        O  0.67556373  0.12423053  0.35001442    -0.60060
H509        H  0.69480263  0.14858004  0.33467628     0.43970
H510        H  0.60641774  0.16245397  0.47548481     0.43920
C511        C  0.49063654  0.16650822  0.13060939    -0.05140
C512        C  0.45502790  0.16813880  0.12528735    -0.32570
C513        C  0.45196648  0.18842902  0.09511007     0.36680
C514        C  0.48500584  0.20775401  0.07003084    -0.05500
C515        C  0.52135401  0.20765563  0.07629147    -0.32470
C516        C  0.52425832  0.18710925  0.10627715     0.36590
H517        H  0.42878261  0.15198222  0.14363927     0.16960
O518        O  0.41533223  0.18634921  0.08885319    -0.59970
H519        H  0.54707192  0.22258500  0.05732323     0.16970
O520        O  0.56019561  0.18757600  0.11182462    -0.60060
H521        H  0.55728642  0.16463855  0.09682702     0.43970
H522        H  0.41765403  0.20973500  0.10272557     0.43920
C523        C  0.47280485  0.19545140  0.43729602    -0.05140
C524        C  0.45694430  0.15248669  0.43853971    -0.32570
C525        C  0.46076080  0.13200974  0.40926697     0.36680
C526        C  0.47920586  0.15394077  0.37700709    -0.05500
C527        C  0.49361391  0.19659811  0.37506849    -0.32470
C528        C  0.49093349  0.21750430  0.40497182     0.36590
H529        H  0.44194609  0.13454784  0.46266313     0.16960
O530        O  0.44561062  0.09020136  0.41242351    -0.59970
H531        H  0.50838289  0.21418137  0.35074626     0.16970
O532        O  0.50857900  0.25988542  0.40302105    -0.60060
H533        H  0.48953176  0.26366006  0.38769185     0.43970
H534        H  0.46740252  0.08873802  0.42568812     0.43920
C535        C  0.37004768  0.96769636  0.12564454    -0.05140
C536        C  0.38705210  0.96082375  0.09499844    -0.32570
C537        C  0.36243833  0.94072186  0.06493206     0.36680
C538        C  0.31987703  0.92732352  0.06480909    -0.05500
C539        C  0.30231641  0.93270421  0.09589979    -0.32470
C540        C  0.32698011  0.95243130  0.12629888     0.36590
H541        H  0.41969327  0.97079846  0.09435055     0.16960
O542        O  0.37986138  0.93288127  0.03620846    -0.59970
H543        H  0.26963515  0.92253314  0.09629383     0.16970
O544        O  0.30911470  0.95836039  0.15574517    -0.60060
H545        H  0.29640206  0.93191405  0.16962967     0.43970
H546        H  0.40034928  0.96062108  0.02561418     0.43920
C547        C  0.36134449  0.96799287  0.37132031    -0.05140
C548        C  0.35717241  0.99317576  0.39611268    -0.32570
C549        C  0.33157590  0.97557446  0.42646589     0.36680
C550        C  0.30975709  0.93203019  0.43237115    -0.05500
C551        C  0.31234468  0.90669413  0.40641068    -0.32470
C552        C  0.33773508  0.92438936  0.37596647     0.36590
H553        H  0.37417867  0.02667024  0.39209102     0.16960
O554        O  0.32762449  0.00097543  0.45001932    -0.59970
H555        H  0.29626770  0.87324470  0.41060947     0.16970
O556        O  0.34163762  0.89911253  0.35230853    -0.60060
H557        H  0.31935644  0.89091846  0.33429213     0.43970
H558        H  0.35557595  0.01900990  0.46106351     0.43920
C559        C  0.51901907  0.91341923  0.06434598    -0.05140
C560        C  0.53220318  0.95572321  0.06205334    -0.32570
C561        C  0.52855774  0.97652033  0.09112670     0.36680
C562        C  0.51446366  0.95631670  0.12473964    -0.05500
C563        C  0.50306737  0.91453816  0.12777810    -0.32470
C564        C  0.50456684  0.89285599  0.09784952     0.36590
H565        H  0.54462177  0.97290790  0.03716114     0.16960
O566        O  0.53898404  0.01681364  0.08611253    -0.59970
H567        H  0.49133730  0.89803760  0.15305950     0.16970
O568        O  0.48921898  0.85100912  0.10114394    -0.60060
H569        H  0.51019543  0.84937841  0.11559602     0.43970
H570        H  0.51408797  0.01433598  0.07488810     0.43920
C571        C  0.50733880  0.90252582  0.43209693    -0.05140
C572        C  0.46889464  0.88885278  0.41566892    -0.32570
C573        C  0.46711696  0.90989714  0.38546653     0.36680
C574        C  0.50407606  0.94465820  0.37151575    -0.05500
C575        C  0.54250345  0.95776759  0.38757341    -0.32470
C576        C  0.54430737  0.93683077  0.41766438     0.36590
H577        H  0.44028470  0.86272586  0.42688242     0.16960
O578        O  0.42918386  0.89693820  0.37022371    -0.59970
H579        H  0.57098998  0.98493593  0.37728924     0.16970
O580        O  0.58207628  0.95131554  0.43392150    -0.60060
H581        H  0.59249743  0.93461075  0.42349372     0.43970
H582        H  0.41916830  0.91299491  0.38265682     0.43920
C583        C  0.51819578  0.89136215  0.53086586     0.03450
C584        C  0.50760137  0.90179382  0.49823085    -0.12700
C585        C  0.50910503  0.88394986  0.96617587     0.00950
C586        C  0.51728723  0.85230044  0.96653764    -0.11220
C587        C  0.52742608  0.84017828  0.99881800     0.03450
C588        C  0.52950716  0.86163401  0.53064980    -0.10640
H589        H  0.49932500  0.92495390  0.49728046     0.09040
H590        H  0.51563215  0.83777401  0.94122832     0.06570
H591        H  0.54087821  0.85633128  0.55523999     0.06420
C592        C  0.29439530  0.90955992  0.53180073     0.03450
C593        C  0.25549692  0.87144367  0.53263118    -0.12700
C594        C  0.23168081  0.85356666  0.00096316     0.00950
C595        C  0.24906101  0.87567884  0.96831685    -0.11220
C596        C  0.28852641  0.91314459  0.96713758     0.03450
C597        C  0.31029493  0.93022825  0.49906102    -0.10640
H598        H  0.24556566  0.85552596  0.55812681     0.09040
H599        H  0.23307907  0.86438335  0.94311845     0.06570
H600        H  0.34075787  0.95903817  0.49828118     0.06420
O601        O  0.37950030  0.97837856  0.80964337    -0.74970
O602        O  0.43054515  0.01337480  0.85163638    -0.53880
C603        C  0.39239580  0.98779485  0.84224830     0.78760
O604        O  0.51117536  0.96576292  0.68797602    -0.59570
O605        O  0.50616154  0.00884352  0.64869338    -0.52600
C606        C  0.51036206  0.97827378  0.65589898     0.70770
O607        O  0.50485447  0.95968290  0.80997070    -0.74130
O608        O  0.49999786  0.00080700  0.85178106    -0.54690
C609        C  0.50268414  0.96984103  0.84245301     0.76780
O610        O  0.38279620  0.98084808  0.68833232    -0.59270
O611        O  0.43673106  0.01683605  0.64875910    -0.52390
C612        C  0.39806945  0.99018573  0.65629928     0.73370
Zr613      Zr  0.40988807  0.00054788  0.74947907     2.54710
O614        O  0.36129853  0.92505614  0.74898494    -0.79840
O615        O  0.35362798  0.01328066  0.74798958    -0.93250
Zr616      Zr  0.50683407  0.98633297  0.74968588     2.64680
O617        O  0.45940663  0.91067017  0.74782231    -0.98210
O618        O  0.56844049  0.98195129  0.75037337    -0.80270
O619        O  0.45687566  0.99136053  0.78393428    -0.83630
O620        O  0.45882311  0.99392446  0.71555576    -2.18340
O621        O  0.48614614  0.14892716  0.69221287    -0.67020
O622        O  0.49727571  0.11171092  0.65076729    -0.51580
C623        C  0.49134978  0.14075166  0.65982352     0.71750
O624        O  0.61259709  0.12811130  0.81392173    -0.59920
O625        O  0.55845677  0.09449724  0.85373756    -0.51900
C626        C  0.59737148  0.11918540  0.84592843     0.73560
O627        O  0.61690241  0.12610656  0.69310089    -0.71320
O628        O  0.56516909  0.09336699  0.65136210    -0.50000
C629        C  0.60374421  0.11605373  0.66064978     0.74940
O630        O  0.48477783  0.14574559  0.81405358    -0.66650
O631        O  0.48806944  0.10173226  0.85352938    -0.53850
C632        C  0.48445806  0.13262242  0.84611646     0.73320
Zr633      Zr  0.48872351  0.12470380  0.75257738     2.77540
O634        O  0.53833410  0.20003892  0.75438691    -0.97400
O635        O  0.42881509  0.13182397  0.75325623    -0.78220
Zr636      Zr  0.58541816  0.11026013  0.75293661     2.70070
O637        O  0.63122464  0.18610113  0.75100469    -0.79470
O638        O  0.64374625  0.10082053  0.75722297    -0.98550
Zr639      Zr  0.49565082  0.05303571  0.81879506     2.21500
Zr640      Zr  0.49960405  0.05805156  0.68366411     2.11130
O641        O  0.53884696  0.11988490  0.71836811    -2.47240
O642        O  0.53669256  0.11713169  0.78712940    -0.79260
O643        O  0.44934308  0.06402783  0.71641512    -0.71460
O644        O  0.54580257  0.04690564  0.78588087    -2.32410
O645        O  0.44748894  0.06144243  0.78525092    -2.28620
O646        O  0.54769774  0.04955513  0.71701904    -0.73210
H647        H  0.44422103  0.97047612  0.69945742     0.78780
H648        H  0.56391220  0.04373540  0.80185455     0.79870
H649        H  0.55474176  0.14419199  0.70316591     0.82090
H650        H  0.42840491  0.06359216  0.80082778     0.79700
H651        H  0.58426070  0.99783402  0.77187063     0.42740
H652        H  0.63854892  0.08047884  0.73815207     0.41710
H653        H  0.61660008  0.19611474  0.76564957     0.41390
H654        H  0.55658802  0.20639868  0.73319066     0.39320
H655        H  0.40726565  0.10779319  0.73908243     0.42450
H656        H  0.35594725  0.02739207  0.77096183     0.37240
H657        H  0.37695331  0.91394008  0.76027266     0.43350
H658        H  0.44027887  0.90546759  0.72764857     0.39770
H659        H  0.52150155  0.21202981  0.74845562     0.44690
H660        H  0.32779585  0.98518760  0.75054523     0.43410
H661        H  0.47686442  0.90029049  0.73925114     0.43540
H662        H  0.66826877  0.12760629  0.74863516     0.43900
C663        C  0.47987583  0.22380098  0.53548307     0.03450
C664        C  0.48170332  0.20578350  0.50355669    -0.12700
C665        C  0.47216205  0.21661842  0.97064995     0.00950
C666        C  0.46107151  0.24642177  0.97011279    -0.11220
C667        C  0.46239561  0.26785557  0.00160655     0.03450
C668        C  0.47172072  0.25558410  0.53435867    -0.10640
H669        H  0.48974807  0.18244107  0.50458148     0.09040
H670        H  0.45088249  0.25198110  0.94497849     0.06570
H671        H  0.47376159  0.27076944  0.55937321     0.06420
C672        C  0.70746612  0.17618574  0.53480453     0.03450
C673        C  0.68437150  0.16333098  0.50295175    -0.12700
C674        C  0.70275237  0.18326574  0.97043215     0.00950
C675        C  0.74423309  0.21719708  0.96984158    -0.11220
C676        C  0.76824679  0.23114212  0.00154894     0.03450
C677        C  0.74974122  0.20882489  0.53363652    -0.10640
H678        H  0.65150246  0.13880764  0.50352837     0.09040
H679        H  0.75623816  0.23390651  0.94477483     0.06570
H680        H  0.76735817  0.21753836  0.55831770     0.06420
O681        O  0.08201869  0.53765761  0.81432237    -0.74970
O682        O  0.03680655  0.53907869  0.85329958    -0.53880
C683        C  0.06947660  0.53850059  0.84636247     0.78760
O684        O  0.06494413  0.66180989  0.69334276    -0.59570
O685        O  0.03028526  0.61056854  0.65148360    -0.52600
C686        C  0.05623664  0.64864972  0.66076805     0.70770
O687        O  0.06298437  0.65748111  0.81472946    -0.74130
O688        O  0.02377928  0.60466224  0.85460549    -0.54690
C689        C  0.05167062  0.64291070  0.84681177     0.76780
O690        O  0.08256303  0.53596478  0.69249665    -0.59270
O691        O  0.03951886  0.53859205  0.65140426    -0.52390
C692        C  0.07110153  0.53650743  0.66009091     0.73370
Zr693      Zr  0.05686859  0.53529235  0.75289801     2.54710
O694        O  0.13266047  0.58151860  0.75265291    -0.79840
O695        O  0.05989612  0.47289971  0.75367656    -0.93250
Zr696      Zr  0.04203093  0.63162751  0.75353124     2.64680
O697        O  0.11731701  0.68154835  0.75566096    -0.98210
O698        O  0.02834243  0.68725400  0.75401875    -0.80270
O699        O  0.04887259  0.58280931  0.78740317    -0.83630
O700        O  0.05112960  0.58486280  0.71890811    -2.18340
O701        O  0.91567816  0.42870778  0.68888868    -0.67020
O702        O  0.94790314  0.48330071  0.64943984    -0.51580
C703        C  0.92383786  0.44422811  0.65690084     0.71750
O704        O  0.89075778  0.54890636  0.81220311    -0.59920
O705        O  0.93088705  0.54131302  0.85299428    -0.51900
C706        C  0.89994323  0.54438789  0.84448796     0.73560
O707        O  0.89710872  0.55834378  0.69066678    -0.71320
O708        O  0.94154665  0.55695744  0.65028875    -0.50000
C709        C  0.91037374  0.55997494  0.65845883     0.74940
O710        O  0.91573187  0.42429151  0.81033307    -0.66650
O711        O  0.94961198  0.47604519  0.85188280    -0.53850
C712        C  0.92633749  0.43742647  0.84278111     0.73320
Zr713      Zr  0.93259761  0.45585775  0.75026241     2.77540
O714        O  0.85667349  0.41046890  0.75148817    -0.97400
O715        O  0.94120194  0.39693081  0.74777991    -0.78220
Zr716      Zr  0.91784215  0.55250641  0.75159225     2.70070
O717        O  0.84230574  0.50519115  0.74789163    -0.79470
O718        O  0.91310193  0.61375383  0.75529710    -0.98550
Zr719      Zr  0.98502704  0.54159230  0.81927035     2.21500
Zr720      Zr  0.98897990  0.54591055  0.68440045     2.11130
O721        O  0.92518066  0.50468977  0.71666950    -2.47240
O722        O  0.92293928  0.50221450  0.78520421    -0.79260
O723        O  0.99582395  0.49604360  0.71706948    -0.71460
O724        O  0.97886027  0.59203543  0.78701464    -2.32410
O725        O  0.99394460  0.49383698  0.78567461    -2.28620
O726        O  0.98068939  0.59388304  0.71817406    -0.73210
H727        H  0.07548704  0.60043238  0.70372825     0.78780
H728        H  0.97558846  0.60991040  0.80318125     0.79870
H729        H  0.90170001  0.49013099  0.70057146     0.82090
H730        H  0.99692624  0.47518933  0.80114144     0.79700
H731        H  0.01360972  0.68360086  0.77699168     0.42740
H732        H  0.93190290  0.63258919  0.73606461     0.41710
H733        H  0.83655036  0.47899755  0.75924477     0.41390
H734        H  0.84726708  0.41865081  0.73009013     0.39320
H735        H  0.96899570  0.40848426  0.73656603     0.42450
H736        H  0.04965568  0.46050217  0.77779007     0.37240
H737        H  0.13792973  0.60912073  0.75949105     0.43350
H738        H  0.12888242  0.67234391  0.73671922     0.39770
H739        H  0.85083330  0.38239004  0.74569361     0.44690
H740        H  0.09014664  0.48375191  0.75412377     0.43410
H741        H  0.12153662  0.70802228  0.74642466     0.43540
H742        H  0.88461545  0.60395374  0.74667643     0.43900
C743        C  0.16260677  0.53590877  0.53651139     0.03450
C744        C  0.15089669  0.54523005  0.50428744    -0.12700
C745        C  0.15918403  0.53336426  0.97127426     0.00950
C746        C  0.18519686  0.51750965  0.97127542    -0.11220
C747        C  0.20497895  0.51628875  0.00305602     0.03450
C748        C  0.19150225  0.52393410  0.53600478    -0.10640
H749        H  0.13256849  0.55921025  0.50570662     0.09040
H750        H  0.18884854  0.50497587  0.94674301     0.06570
H751        H  0.20206675  0.52009291  0.56162497     0.06420
C752        C  0.85960662  0.33701006  0.53265620     0.03450
C753        C  0.82440485  0.29612881  0.53338748    -0.12700
C754        C  0.80981556  0.27180610  0.00189876     0.00950
C755        C  0.83238352  0.28937341  0.96977098    -0.11220
C756        C  0.86495416  0.33158921  0.96794561     0.03450
C757        C  0.87914316  0.35480083  0.49975937    -0.10640
H758        H  0.80725082  0.28486800  0.55831547     0.09040
H759        H  0.82365313  0.27106045  0.94551658     0.06570
H760        H  0.90444792  0.38739459  0.49882193     0.06420
C761        C  0.82807907  0.57281295  0.53336113     0.03450
C762        C  0.83944974  0.56236843  0.00132341    -0.12700
C763        C  0.81860597  0.55857983  0.96922555     0.00950
C764        C  0.78462653  0.56355398  0.96972526    -0.11220
C765        C  0.77346568  0.57614855  0.00112430     0.03450
C766        C  0.79602111  0.58077850  0.53295729    -0.10640
H767        H  0.86480214  0.55717325  0.00141453     0.09040
H768        H  0.76695672  0.55684102  0.94533175     0.06570
H769        H  0.78972050  0.59118800  0.55765375     0.06420
C770        C  0.13692128  0.74970932  0.53557496     0.03450
C771        C  0.17162459  0.79098874  0.53461474    -0.12700
C772        C  0.19104288  0.81091576  0.00170404     0.00950
C773        C  0.17153465  0.78880635  0.96962889    -0.11220
C774        C  0.13677038  0.74731159  0.97026199     0.03450
C775        C  0.12121939  0.72778606  0.50352839    -0.10640
H776        H  0.18238074  0.80704291  0.55988847     0.09040
H777        H  0.18259677  0.80326214  0.94384275     0.06570
H778        H  0.09623959  0.69509410  0.50464206     0.06420
O779        O  0.60262011  0.58241837  0.68874117    -0.74970
O780        O  0.55147913  0.56859510  0.64859585    -0.53880
C781        C  0.58805824  0.57697317  0.65657879     0.78760
O782        O  0.46370366  0.44157173  0.80940922    -0.59570
O783        O  0.47254059  0.48998099  0.85070817    -0.52600
C784        C  0.46563610  0.45411901  0.84180635     0.70770
O785        O  0.46368748  0.44302600  0.68823876    -0.74130
O786        O  0.47393376  0.49286892  0.64779945    -0.54690
C787        C  0.46599962  0.45643036  0.65597941     0.76780
O788        O  0.60367968  0.58422406  0.81080733    -0.59270
O789        O  0.55176510  0.56847624  0.85087384    -0.52390
C790        C  0.58890430  0.57820233  0.84305264     0.73370
Zr791      Zr  0.57658165  0.57969348  0.74975724     2.54710
O792        O  0.61633489  0.54656827  0.75019220    -0.79840
O793        O  0.63960506  0.64962184  0.74925652    -0.93250
Zr794      Zr  0.46762890  0.46896567  0.74915385     2.64680
O795        O  0.50394299  0.43228789  0.74700462    -0.98210
O796        O  0.39925810  0.40390360  0.74988771    -0.80270
O797        O  0.52248949  0.52438083  0.71530808    -0.83630
O798        O  0.52221510  0.52350229  0.78354296    -2.18340
O799        O  0.52344977  0.66514704  0.81069974    -0.67020
O800        O  0.51155266  0.61489949  0.85150408    -0.51580
C801        C  0.52149884  0.65200344  0.84297839     0.71750
O802        O  0.37856308  0.52167070  0.68967952    -0.59920
O803        O  0.42840664  0.53334418  0.64853621    -0.51900
C804        C  0.39157398  0.52390950  0.65733560     0.73560
O805        O  0.37856291  0.52129326  0.81066387    -0.71320
O806        O  0.42863915  0.53360070  0.85162917    -0.50000
C807        C  0.39187952  0.52435801  0.84295725     0.74940
O808        O  0.51802592  0.66415871  0.68947490    -0.66650
O809        O  0.50912253  0.61545871  0.64844676    -0.53850
C810        C  0.51635431  0.65143888  0.65716852     0.73320
Zr811      Zr  0.51472666  0.63747516  0.74996357     2.77540
O812        O  0.47751296  0.67328156  0.75142899    -0.97400
O813        O  0.58259312  0.70298521  0.74772010    -0.78220
Zr814      Zr  0.40606243  0.52732493  0.75007286     2.70070
O815        O  0.36792002  0.56214624  0.75012521    -0.79470
O816        O  0.34217195  0.45806992  0.74969969    -0.98550
Zr817      Zr  0.49091121  0.55362401  0.68221507     2.21500
Zr818      Zr  0.49070210  0.55241536  0.81750496     2.11130
O819        O  0.45992176  0.58264265  0.78442367    -2.47240
O820        O  0.45983888  0.58313924  0.71555107    -0.79260
O821        O  0.54611682  0.60892494  0.78448638    -0.71460
O822        O  0.43573109  0.49732484  0.71536295    -2.32410
O823        O  0.54650943  0.60962528  0.71521676    -2.28620
O824        O  0.43567640  0.49664877  0.78414510    -0.73210
H825        H  0.53402947  0.51198560  0.79889312     0.78780
H826        H  0.41486701  0.47625238  0.69961717     0.79870
H827        H  0.44832485  0.59399314  0.80021861     0.82090
H828        H  0.56728083  0.63080043  0.69929710     0.79700
H829        H  0.38504822  0.40511258  0.72811801     0.42740
H830        H  0.34506624  0.44337808  0.77034633     0.41710
H831        H  0.38732607  0.58962300  0.73871362     0.41390
H832        H  0.45792648  0.66065636  0.77195221     0.39320
H833        H  0.60032438  0.69857854  0.76416349     0.42450
H834        H  0.63999331  0.66114583  0.72530275     0.37240
H835        H  0.59609117  0.51754280  0.74234437     0.43350
H836        H  0.52522838  0.44516421  0.76616841     0.39770
H837        H  0.49864228  0.70203309  0.75931731     0.44690
H838        H  0.66277525  0.64487560  0.74840835     0.43410
H839        H  0.48328356  0.40378451  0.75595859     0.43540
H840        H  0.32000122  0.46278936  0.75707145     0.43900
C841        C  0.45735628  0.36040774  0.96682165     0.03450
C842        C  0.45875589  0.32422978  0.96739312    -0.12700
C843        C  0.45640940  0.30405088  0.00020341     0.00950
C844        C  0.45048605  0.32044727  0.53206729    -0.11220
C845        C  0.45354086  0.35894487  0.53214611     0.03450
C846        C  0.45796215  0.37892227  0.99931214    -0.10640
H847        H  0.46191001  0.31262008  0.94204063     0.09040
H848        H  0.44346183  0.30364440  0.55707429     0.06570
H849        H  0.46196985  0.40936702  0.99883268     0.06420
C850        C  0.29364194  0.50519025  0.96765347     0.03450
C851        C  0.31020025  0.50127645  0.99976727    -0.12700
C852        C  0.29189766  0.50001296  0.53270628     0.00950
C853        C  0.25581331  0.50144895  0.53326878    -0.11220
C854        C  0.23955970  0.50785782  0.00157456     0.03450
C855        C  0.25942886  0.50983724  0.96870746    -0.10640
H856        H  0.33878418  0.50144105  0.99907349     0.09040
H857        H  0.24178469  0.49856866  0.55910287     0.06570
H858        H  0.24957482  0.51592747  0.94359731     0.06420
C859        C  0.68869138  0.59443328  0.96749034     0.03450
C860        C  0.72280873  0.58952552  0.96783796    -0.12700
C861        C  0.73867119  0.58427576  0.00059411     0.00950
C862        C  0.71941359  0.58488371  0.53290945    -0.11220
C863        C  0.68694122  0.59204522  0.53277831     0.03450
C864        C  0.67260646  0.59776443  0.00018698    -0.10640
H865        H  0.73544283  0.58834096  0.94231986     0.09040
H866        H  0.72757885  0.57758100  0.55834260     0.06570
H867        H  0.64673630  0.60224573  0.00027116     0.06420
C868        C  0.54045543  0.75194815  0.96666936     0.03450
C869        C  0.54156395  0.78953272  0.96721414    -0.12700
C870        C  0.53432716  0.80463282  0.99930491     0.00950
C871        C  0.53103440  0.78350953  0.53161740    -0.11220
C872        C  0.53402494  0.74832291  0.53184400     0.03450
C873        C  0.53683477  0.73183875  0.99926689    -0.10640
H874        H  0.54775781  0.80640678  0.94230847     0.09040
H875        H  0.52551503  0.79350808  0.55689701     0.06570
H876        H  0.53487029  0.70233153  0.99936060     0.06420
C877        C  0.31460224  0.50756693  0.93332506    -0.05140
C878        C  0.32904808  0.54227669  0.91053941    -0.32570
C879        C  0.35335440  0.54741299  0.88029561     0.36680
C880        C  0.36321119  0.51751124  0.87245877    -0.05500
C881        C  0.34773314  0.48219442  0.89445008    -0.32470
C882        C  0.32315542  0.47683001  0.92447606     0.36590
H883        H  0.32297840  0.56630058  0.91704052     0.16960
O884        O  0.36868535  0.58250007  0.85933721    -0.59970
H885        H  0.35511655  0.45897215  0.88851029     0.16880
O886        O  0.30825779  0.44181146  0.94542806    -0.60060
H887        H  0.27952581  0.42182103  0.93663907     0.43970
H888        H  0.39659436  0.60308454  0.86938599     0.43920
C889        C  0.31330362  0.50225058  0.56669806    -0.05140
C890        C  0.32003844  0.53218691  0.59257957    -0.32570
C891        C  0.34405502  0.53833845  0.62312257     0.36680
C892        C  0.36219748  0.51482439  0.62789500    -0.05500
C893        C  0.35384909  0.48358648  0.60314747    -0.32470
C894        C  0.32972253  0.47719580  0.57261185     0.36590
H895        H  0.30803380  0.55205840  0.58843283     0.16960
O896        O  0.35181383  0.56916854  0.64693118    -0.59970
H897        H  0.36608978  0.46408746  0.60758693     0.16970
O898        O  0.32150419  0.44584205  0.54917174    -0.60060
H899        H  0.34870292  0.45472595  0.53776401     0.43970
H900        H  0.32850868  0.55551453  0.66451112     0.43920
C901        C  0.53054536  0.68139192  0.87257309    -0.05140
C902        C  0.51182077  0.70463100  0.87293856    -0.32570
C903        C  0.51613628  0.72924197  0.90262915     0.36680
C904        C  0.54043052  0.73167359  0.93236807    -0.05500
C905        C  0.56135086  0.71039548  0.93067401    -0.32470
C906        C  0.55588932  0.68481331  0.90151513     0.36590
H907        H  0.49190765  0.70195206  0.85093550     0.16960
O908        O  0.49356575  0.74773769  0.90349713    -0.59970
H909        H  0.58103421  0.71248438  0.95262835     0.16970
O910        O  0.57582213  0.66359597  0.90135352    -0.60060
H911        H  0.55799404  0.63822331  0.91615443     0.43970
H912        H  0.50810054  0.77176382  0.88666218     0.43920
C913        C  0.52325717  0.67998558  0.62756936    -0.05140
C914        C  0.55543372  0.69074142  0.60296373    -0.32570
C915        C  0.56026675  0.71445224  0.57245703     0.36680
C916        C  0.53205374  0.72703772  0.56589397    -0.05500
C917        C  0.50068836  0.71740214  0.59132106    -0.32470
C918        C  0.49624693  0.69406466  0.62206238     0.36590
H919        H  0.57669911  0.68042349  0.60730309     0.16960
O920        O  0.59321599  0.72608681  0.54961125    -0.59970
H921        H  0.47861099  0.72661771  0.58671463     0.16970
O922        O  0.46440986  0.68370771  0.64578397    -0.60060
H923        H  0.44051936  0.65640634  0.63740642     0.43970
H924        H  0.58679415  0.70000884  0.53759287     0.43920
C925        C  0.66505494  0.58978145  0.93401172    -0.05140
C926        C  0.62135564  0.56297044  0.93505177    -0.32570
C927        C  0.59673090  0.55895861  0.90577687     0.36680
C928        C  0.61548044  0.58141967  0.87376298    -0.05500
C929        C  0.65941213  0.60690419  0.87189397    -0.32470
C930        C  0.68421632  0.61119155  0.90173096     0.36590
H931        H  0.60588624  0.54487040  0.95901151     0.16960
O932        O  0.55421925  0.53178748  0.90853969    -0.59970
H933        H  0.67454116  0.62434207  0.84760470     0.16970
O934        O  0.72678591  0.63791993  0.89962466    -0.60060
H935        H  0.73658347  0.62320652  0.88476360     0.43970
H936        H  0.54418099  0.54708731  0.92222839     0.43920
C937        C  0.61440569  0.57956287  0.62614265    -0.05140
C938        C  0.65799085  0.60789071  0.62655870    -0.32570
C939        C  0.68247275  0.61193538  0.59661807     0.36680
C940        C  0.66329018  0.58742824  0.56591240    -0.05500
C941        C  0.62007329  0.55820015  0.56612093    -0.32470
C942        C  0.59568316  0.55418726  0.59568247     0.36590
H943        H  0.67290051  0.62770784  0.64965691     0.16960
O944        O  0.72459575  0.64134961  0.59685536    -0.59970
H945        H  0.60502055  0.53840075  0.54301486     0.16970
O946        O  0.55363464  0.52432004  0.59494464    -0.60060
H947        H  0.54110312  0.53642297  0.58001270     0.43970
H948        H  0.73719170  0.62812848  0.61006941     0.43920
C949        C  0.46024265  0.42576147  0.87124235    -0.05140
C950        C  0.43206094  0.41821074  0.89889743    -0.32570
C951        C  0.42936279  0.39508680  0.92917860     0.36680
C952        C  0.45613083  0.38011953  0.93267410    -0.05500
C953        C  0.48309567  0.38619390  0.90411541    -0.32470
C954        C  0.48489914  0.40845568  0.87335252     0.36590
H955        H  0.41222429  0.43056794  0.89712233     0.16960
O956        O  0.39981111  0.38641651  0.95493030    -0.59970
H957        H  0.50394527  0.37508560  0.90616795     0.16970
O958        O  0.51296194  0.41567679  0.84667770    -0.60060
H959        H  0.49782894  0.39133554  0.83041939     0.43970
H960        H  0.40857191  0.41367260  0.96599914     0.43920
C961        C  0.45935951  0.42824598  0.62591519    -0.05140
C962        C  0.47597291  0.40308233  0.62732044    -0.32570
C963        C  0.47349486  0.37930397  0.59753885     0.36680
C964        C  0.45275296  0.37934873  0.56605552    -0.05500
C965        C  0.43387436  0.40257056  0.56588477    -0.32470
C966        C  0.43831929  0.42786728  0.59476899     0.36590
H967        H  0.49287503  0.40353970  0.65088670     0.16960
O968        O  0.49426501  0.35895739  0.59860981    -0.59970
H969        H  0.41661255  0.40233685  0.54269024     0.16970
O970        O  0.42175641  0.45206799  0.59226550    -0.60060
H971        H  0.44231103  0.47695340  0.57804081     0.43970
H972        H  0.47756371  0.33474123  0.61490788     0.43920
C973        C  0.84926116  0.57394600  0.56727197    -0.05140
C974        C  0.82543641  0.54944380  0.59677081    -0.32570
C975        C  0.84484962  0.54557169  0.62723005     0.36680
C976        C  0.88873464  0.56607709  0.62835551    -0.05500
C977        C  0.91249291  0.59181463  0.59946133    -0.32470
C978        C  0.89320259  0.59606958  0.56925248     0.36590
H979        H  0.79160975  0.53186913  0.59557836     0.16960
O980        O  0.82055329  0.51935649  0.65454983    -0.59970
H981        H  0.94627097  0.60850551  0.60015762     0.16970
O982        O  0.91750105  0.62251483  0.54199062    -0.60060
H983        H  0.93133910  0.60935250  0.53084045     0.43970
H984        H  0.81434912  0.53649720  0.67009787     0.43920
C985        C  0.87387946  0.54354504  0.87434183    -0.05140
C986        C  0.85927298  0.57044520  0.87371983    -0.32570
C987        C  0.83955538  0.57440250  0.90384458     0.36680
C988        C  0.83361720  0.55068651  0.93512793    -0.05500
C989        C  0.84584265  0.52178272  0.93473024    -0.32470
C990        C  0.86625252  0.51846998  0.90493655     0.36590
H991        H  0.86520968  0.59020698  0.85054318     0.16960
O992        O  0.82951992  0.60408308  0.90344575    -0.59970
H993        H  0.84065929  0.50246975  0.95806287     0.16970
O994        O  0.87840991  0.49040269  0.90588714    -0.60060
H995        H  0.90439310  0.50402955  0.92033184     0.43970
H996        H  0.80419157  0.59224944  0.88828052     0.43920
C997        C  0.90437406  0.41542636  0.62621326    -0.05140
C998        C  0.89751088  0.37522920  0.62755879    -0.32570
C999        C  0.88215881  0.34893875  0.59754303     0.36680
C1000       C  0.87349530  0.36280946  0.56560885    -0.05500
C1001       C  0.87873063  0.40225630  0.56484081    -0.32470
C1002       C  0.89403833  0.42848079  0.59467642     0.36590
H1003       H  0.90533209  0.36466774  0.65150823     0.16960
O1004       O  0.87804138  0.31080827  0.59897792    -0.59970
H1005       H  0.87101332  0.41289561  0.54087404     0.16970
O1006       O  0.89763250  0.46638074  0.59307959    -0.60060
H1007       H  0.92370178  0.48500983  0.57935628     0.43970
H1008       H  0.85189601  0.29237956  0.61267161     0.43920
C1009       C  0.91140860  0.40617919  0.87195756    -0.05140
C1010       C  0.86903785  0.37438833  0.87451689    -0.32570
C1011       C  0.85368347  0.34808128  0.90470632     0.36680
C1012       C  0.88111486  0.35317134  0.93277194    -0.05500
C1013       C  0.92399421  0.38305206  0.92868070    -0.32470
C1014       C  0.93907041  0.40948273  0.89874820     0.36590
H1015       H  0.84738417  0.37141819  0.85404593     0.16960
O1016       O  0.81138224  0.32016217  0.90789494    -0.59970
H1017       H  0.94578583  0.38696349  0.94940297     0.16970
O1018       O  0.98100895  0.43877619  0.89600413    -0.60060
H1019       H  0.98514423  0.46264906  0.91018554     0.43970
H1020       H  0.80482926  0.29685784  0.89152395     0.43920
C1021       C  0.09556706  0.53440920  0.63028381    -0.05140
C1022       C  0.07421481  0.51084246  0.59996026    -0.32570
C1023       C  0.09599140  0.51005154  0.57018463     0.36680
C1024       C  0.14012010  0.53401861  0.56976618    -0.05500
C1025       C  0.16169720  0.55647488  0.60055518    -0.32470
C1026       C  0.13967299  0.55684561  0.63073974     0.36590
H1027       H  0.04033948  0.49287645  0.59932740     0.16960
O1028       O  0.07373895  0.48594458  0.54132149    -0.59970
H1029       H  0.19555657  0.57478292  0.60074485     0.16970
O1030       O  0.16154140  0.58045599  0.65990730    -0.60060
H1031       H  0.16493266  0.60795277  0.65597417     0.43970
H1032       H  0.07245869  0.45935743  0.54448911     0.43920
C1033       C  0.09336555  0.53820324  0.87792440    -0.05140
C1034       C  0.13166172  0.54122770  0.87338884    -0.32570
C1035       C  0.15422000  0.54066282  0.90307844     0.36680
C1036       C  0.13736573  0.53453815  0.93813267    -0.05500
C1037       C  0.09855603  0.53050634  0.94210324    -0.32470
C1038       C  0.07798155  0.53488646  0.91317884     0.36590
H1039       H  0.14490510  0.54527592  0.84679994     0.16960
O1040       O  0.19352813  0.54849911  0.89752434    -0.59970
H1041       H  0.08364409  0.52442412  0.96806777     0.16970
O1042       O  0.04449933  0.53879936  0.91976914    -0.60060
H1043       H  0.02902428  0.52132872  0.94094434     0.43970
H1044       H  0.18935849  0.52386641  0.88436910     0.43920
C1045       C  0.11672667  0.72842727  0.56994166    -0.05140
C1046       C  0.14084151  0.72769656  0.59815092    -0.32570
C1047       C  0.12154080  0.70332017  0.62890818     0.36680
C1048       C  0.07764604  0.67905013  0.63150409    -0.05500
C1049       C  0.05369612  0.68121913  0.60414973    -0.32470
C1050       C  0.07283185  0.70586048  0.57366518     0.36590
H1051       H  0.17455620  0.74458092  0.59565638     0.16960
O1052       O  0.14562417  0.70091526  0.65495044    -0.59970
H1053       H  0.01992884  0.66323708  0.60621454     0.16970
O1054       O  0.04849391  0.70820802  0.54777278    -0.60060
H1055       H  0.03246722  0.68011024  0.53664170     0.43970
H1056       H  0.15250741  0.72388799  0.67182451     0.43920
C1057       C  0.07281302  0.67203280  0.87697665    -0.05140
C1058       C  0.11610560  0.70127063  0.87555465    -0.32570
C1059       C  0.13756428  0.72662807  0.90516974     0.36680
C1060       C  0.11541307  0.72370517  0.93675059    -0.05500
C1061       C  0.07161146  0.69579894  0.93708553    -0.32470
C1062       C  0.05055508  0.66970551  0.90799134     0.36590
H1063       H  0.13374910  0.70312147  0.85196832     0.16960
O1064       O  0.18035604  0.75165121  0.90376545    -0.59970
H1065       H  0.05338268  0.69360918  0.96032779     0.16970
O1066       O  0.00818231  0.64167721  0.91036622    -0.60060
H1067       H  0.99549320  0.65620166  0.89966260     0.43970
H1068       H  0.18672659  0.77441261  0.88664546     0.43920
C1069       C  0.63485734  0.13115101  0.63155847    -0.05140
C1070       C  0.63151706  0.10270747  0.60582330    -0.32570
C1071       C  0.65644561  0.11654567  0.57491402     0.36680
C1072       C  0.68571992  0.15959549  0.56968695    -0.05500
C1073       C  0.69106205  0.18776023  0.59683242    -0.32470
C1074       C  0.66603458  0.17374562  0.62771497     0.36590
H1075       H  0.60914798  0.06964097  0.60960514     0.16960
O1076       O  0.65239396  0.08788048  0.55016538    -0.59970
H1077       H  0.71318859  0.22102317  0.59327306     0.16970
O1078       O  0.67018027  0.20224197  0.65260827    -0.60060
H1079       H  0.69186389  0.20540304  0.66946709     0.43970
H1080       H  0.62394749  0.07519423  0.53998452     0.43920
C1081       C  0.62644113  0.13863482  0.87619781    -0.05140
C1082       C  0.61527497  0.15435324  0.90503333    -0.32570
C1083       C  0.64066685  0.17026608  0.93537877     0.36680
C1084       C  0.67756082  0.17014062  0.93733787    -0.05500
C1085       C  0.68958265  0.15585438  0.90799915    -0.32470
C1086       C  0.66434551  0.14028107  0.87743667     0.36590
H1087       H  0.58664835  0.15413266  0.90407384     0.16960
O1088       O  0.62981076  0.18681684  0.96267582    -0.59970
H1089       H  0.71794374  0.15562480  0.90926933     0.16970
O1090       O  0.67556374  0.12423053  0.85001442    -0.60060
H1091       H  0.69480265  0.14858004  0.83467628     0.43970
H1092       H  0.60641774  0.16245399  0.97548480     0.43920
C1093       C  0.49063655  0.16650822  0.63060938    -0.05140
C1094       C  0.45502790  0.16813878  0.62528734    -0.32570
C1095       C  0.45196648  0.18842901  0.59511006     0.36680
C1096       C  0.48500585  0.20775401  0.57003085    -0.05500
C1097       C  0.52135402  0.20765565  0.57629148    -0.32470
C1098       C  0.52425834  0.18710927  0.60627716     0.36590
H1099       H  0.42878260  0.15198219  0.64363925     0.16960
O1100       O  0.41533222  0.18634918  0.58885317    -0.59970
H1101       H  0.54707194  0.22258503  0.55732325     0.16970
O1102       O  0.56019563  0.18757603  0.61182464    -0.60060
H1103       H  0.55728646  0.16463859  0.59682704     0.43970
H1104       H  0.41765401  0.20973496  0.60272554     0.43920
C1105       C  0.47280484  0.19545140  0.93729602    -0.05140
C1106       C  0.45694430  0.15248669  0.93853970    -0.32570
C1107       C  0.46076080  0.13200974  0.90926697     0.36680
C1108       C  0.47920587  0.15394078  0.87700709    -0.05500
C1109       C  0.49361391  0.19659811  0.87506849    -0.32470
C1110       C  0.49093349  0.21750430  0.90497182     0.36590
H1111       H  0.44194609  0.13454784  0.96266312     0.16960
O1112       O  0.44561063  0.09020136  0.91242351    -0.59970
H1113       H  0.50838289  0.21418137  0.85074626     0.16970
O1114       O  0.50857899  0.25988542  0.90302105    -0.60060
H1115       H  0.48953175  0.26366006  0.88769185     0.43970
H1116       H  0.46740253  0.08873802  0.92568812     0.43920
C1117       C  0.37004770  0.96769636  0.62564454    -0.05140
C1118       C  0.38705211  0.96082375  0.59499844    -0.32570
C1119       C  0.36243834  0.94072186  0.56493206     0.36680
C1120       C  0.31987704  0.92732352  0.56480909    -0.05500
C1121       C  0.30231641  0.93270420  0.59589980    -0.32470
C1122       C  0.32698012  0.95243129  0.62629888     0.36590
H1123       H  0.41969328  0.97079846  0.59435055     0.16960
O1124       O  0.37986139  0.93288127  0.53620845    -0.59970
H1125       H  0.26963516  0.92253312  0.59629384     0.16970
O1126       O  0.30911471  0.95836038  0.65574517    -0.60060
H1127       H  0.29640207  0.93191404  0.66962967     0.43970
H1128       H  0.40034929  0.96062108  0.52561417     0.43920
C1129       C  0.36134451  0.96799287  0.87132031    -0.05140
C1130       C  0.35717242  0.99317575  0.89611268    -0.32570
C1131       C  0.33157590  0.97557445  0.92646588     0.36680
C1132       C  0.30975711  0.93203018  0.93237115    -0.05500
C1133       C  0.31234470  0.90669413  0.90641068    -0.32470
C1134       C  0.33773510  0.92438936  0.87596647     0.36590
H1135       H  0.37417867  0.02667023  0.89209101     0.16960
O1136       O  0.32762449  0.00097542  0.95001930    -0.59970
H1137       H  0.29626773  0.87324470  0.91060947     0.16970
O1138       O  0.34163766  0.89911253  0.85230853    -0.60060
H1139       H  0.31935648  0.89091846  0.83429213     0.43970
H1140       H  0.35557594  0.01900989  0.96106350     0.43920
C1141       C  0.51901908  0.91341924  0.56434598    -0.05140
C1142       C  0.53220318  0.95572321  0.56205333    -0.32570
C1143       C  0.52855774  0.97652033  0.59112670     0.36680
C1144       C  0.51446367  0.95631671  0.62473964    -0.05500
C1145       C  0.50306740  0.91453817  0.62777810    -0.32470
C1146       C  0.50456687  0.89285600  0.59784952     0.36590
H1147       H  0.54462176  0.97290790  0.53716113     0.16960
O1148       O  0.53898404  0.01681364  0.58611253    -0.59970
H1149       H  0.49133733  0.89803762  0.65305950     0.16970
O1150       O  0.48921901  0.85100913  0.60114394    -0.60060
H1151       H  0.51019547  0.84937843  0.61559601     0.43970
H1152       H  0.51408797  0.01433598  0.57488809     0.43920
C1153       C  0.50733883  0.90252584  0.93209694    -0.05140
C1154       C  0.46889470  0.88885265  0.91566880    -0.32570
C1155       C  0.46711702  0.90989702  0.88546640     0.36680
C1156       C  0.50407609  0.94465823  0.87151576    -0.05500
C1157       C  0.54250346  0.95776776  0.88757354    -0.32470
C1158       C  0.54430737  0.93683094  0.91766451     0.36590
H1159       H  0.44028477  0.86272562  0.92688220     0.16960
O1160       O  0.42918394  0.89693795  0.87022347    -0.59970
H1161       H  0.57098996  0.98493620  0.87728947     0.16970
O1162       O  0.58207625  0.95131582  0.93392174    -0.60060
H1163       H  0.59249755  0.93461114  0.92349400     0.43970
H1164       H  0.41916823  0.91299454  0.88265655     0.43920
loop_ 
_geom_bond_atom_site_label_1 
_geom_bond_atom_site_label_2 
_geom_bond_distance 
_geom_bond_site_symmetry_2 
_ccdc_geom_bond_type 
C1            C2   1.404   1_554  A
C1            C6   1.409       .  A
C1          C559   1.496       .  S
C2          C585   1.392       .  A
C2            H7   1.083       .  S
C3            C4   1.395       .  A
C3          C584   1.392       .  A
C3          C571   1.471       .  S
C4            C5   1.414       .  A
C4            H8   1.079       .  S
C5          C588   1.419       .  A
C5          C288   1.509       .  S
C6          C587   1.419   1_554  A
C6            H9   1.078       .  S
C10          C11   1.404       .  A
C10          C15   1.397   1_554  A
C10         C538   1.486       .  S
C11         C594   1.420       .  A
C11          H16   1.077       .  S
C12          C13   1.420       .  A
C12         C593   1.420       .  A
C12         C190   1.520       .  S
C13          C14   1.405       .  A
C13          H17   1.076       .  S
C14         C597   1.396       .  A
C14         C550   1.487       .  S
C15         C596   1.396       .  A
C15          H18   1.082       .  S
O19         Zr31   2.450   1_565  S
O19          C21   1.288       .  A
O20         Zr57   2.418       .  S
O20          C21   1.285   1_545  A
C21         C547   1.472       .  S
O22         Zr34   2.465       .  S
O22          C24   1.292       .  A
O23         Zr58   2.403       .  S
O23          C24   1.283   1_545  A
C24         C562   1.488       .  S
O25         Zr34   2.447       .  S
O25          C27   1.288       .  A
O26         Zr57   2.413       .  S
O26          C27   1.284   1_545  A
C27         C574   1.463       .  S
O28         Zr31   2.449   1_565  S
O28          C30   1.289       .  A
O29         Zr58   2.416       .  S
O29          C30   1.286   1_545  A
C30         C535   1.482       .  S
Zr31         O32   2.434   1_545  S
Zr31         O33   2.434       .  S
Zr31         O37   2.374   1_545  S
Zr31         O38   2.371   1_545  S
Zr31         O61   2.379       .  S
Zr31         O63   2.372       .  S
O32          H75   0.990       .  S
O33          H74   0.990       .  S
O33          H78   0.990   1_545  S
Zr34         O35   2.435       .  S
Zr34         O36   2.435       .  S
Zr34         O38   2.367       .  S
Zr34         O37   2.378       .  S
Zr34         O62   2.378   1_565  S
Zr34         O64   2.370   1_565  S
O35          H76   0.990       .  S
O35          H79   0.990       .  S
O36          H69   0.990       .  S
O37         Zr57   2.376   1_565  S
O38         Zr58   2.378   1_565  S
O38          H65   0.965       .  S
O39         Zr51   2.451       .  S
O39          C41   1.289       .  A
O40         Zr58   2.419       .  S
O40          C41   1.286       .  A
C41         C511   1.472       .  S
O42         Zr54   2.440       .  S
O42          C44   1.287       .  A
O43         Zr57   2.416       .  S
O43          C44   1.285       .  A
C44         C499   1.472       .  S
O45         Zr54   2.445       .  S
O45          C47   1.287       .  A
O46         Zr58   2.415       .  S
O46          C47   1.285       .  A
C47         C487   1.471       .  S
O48         Zr51   2.460       .  S
O48          C50   1.291       .  A
O49         Zr57   2.402       .  S
O49          C50   1.283       .  A
C50         C526   1.484       .  S
Zr51         O52   2.435       .  S
Zr51         O53   2.434       .  S
Zr51         O59   2.379       .  S
Zr51         O60   2.374       .  S
Zr51         O63   2.373       .  S
Zr51         O61   2.381       .  S
O52          H72   0.990       .  S
O52          H77   0.990       .  S
O53          H73   0.990       .  S
Zr54         O55   2.434       .  S
Zr54         O56   2.435       .  S
Zr54         O60   2.375       .  S
Zr54         O59   2.373       .  S
Zr54         O64   2.371       .  S
Zr54         O62   2.374       .  S
O55          H71   0.990       .  S
O56          H70   0.990       .  S
O56          H80   0.990       .  S
Zr57         O60   2.374       .  S
Zr57         O62   2.380       .  S
Zr57         O63   2.377       .  S
Zr58         O59   2.379       .  S
Zr58         O61   2.378       .  S
Zr58         O64   2.373       .  S
O59          H67   0.966       .  S
O62          H66   0.966       .  S
O63          H68   0.966       .  S
C81          C82   1.395       .  A
C81          C86   1.400       .  A
C81         C514   1.481       .  S
C82         C665   1.402   1_554  A
C82          H87   1.084       .  S
C83          C84   1.406       .  A
C83         C664   1.402       .  A
C83         C523   1.490       .  S
C84          C85   1.416       .  A
C84          H88   1.077       .  S
C85         C668   1.418       .  A
C85         C261   1.511       .  S
C86         C667   1.418       .  A
C86          H89   1.079       .  S
C90          C91   1.401       .  A
C90          C95   1.404       .  A
C90         C490   1.484       .  S
C91         C674   1.397   1_554  A
C91          H96   1.083       .  S
C92          C93   1.398       .  A
C92         C673   1.397       .  A
C92         C502   1.476       .  S
C93          C94   1.412       .  A
C93          H97   1.080       .  S
C94         C677   1.412       .  A
C94         C172   1.500       .  S
C95         C676   1.412       .  A
C95          H98   1.081       .  S
O99        Zr111   2.466       .  S
O99         C101   1.292       .  A
O100       Zr137   2.388   1_455  S
O100        C101   1.280       .  A
C101        C451   1.491       .  S
O102       Zr114   2.451       .  S
O102        C104   1.288       .  A
O103       Zr138   2.413   1_455  S
O103        C104   1.284       .  A
C104        C466   1.471       .  S
O105       Zr114   2.445       .  S
O105        C107   1.288       .  A
O106       Zr137   2.421   1_455  S
O106        C107   1.286       .  A
C107        C475   1.478       .  S
O108       Zr111   2.447       .  S
O108        C110   1.289       .  A
O109       Zr138   2.419   1_455  S
O109        C110   1.287       .  A
C110        C439   1.477       .  S
Zr111       O112   2.433       .  S
Zr111       O113   2.435       .  S
Zr111       O117   2.369       .  S
Zr111       O118   2.374       .  S
Zr111       O141   2.382   1_455  S
Zr111       O143   2.368   1_455  S
O112        H155   0.990       .  S
O113        H154   0.990       .  S
O113        H158   0.990       .  S
Zr114       O115   2.436       .  S
Zr114       O116   2.435       .  S
Zr114       O118   2.370       .  S
Zr114       O117   2.369       .  S
Zr114       O142   2.380   1_455  S
Zr114       O144   2.375   1_455  S
O115        H156   0.990       .  S
O115        H159   0.990       .  S
O116        H149   0.990       .  S
O117       Zr137   2.373   1_455  S
O118       Zr138   2.381   1_455  S
O118        H145   0.966       .  S
O119       Zr131   2.452       .  S
O119        C121   1.290       .  A
O120       Zr138   2.410       .  S
O120        C121   1.284       .  A
C121        C415   1.479       .  S
O122       Zr134   2.454       .  S
O122        C124   1.290       .  A
O123       Zr137   2.405       .  S
O123        C124   1.283       .  A
C124        C403   1.477       .  S
O125       Zr134   2.453       .  S
O125        C127   1.290       .  A
O126       Zr138   2.421       .  S
O126        C127   1.287       .  A
C127        C394   1.482       .  S
O128       Zr131   2.453       .  S
O128        C130   1.289       .  A
O129       Zr137   2.420       .  S
O129        C130   1.286       .  A
C130        C427   1.476       .  S
Zr131       O132   2.435       .  S
Zr131       O133   2.434       .  S
Zr131       O139   2.376       .  S
Zr131       O140   2.376       .  S
Zr131       O143   2.376       .  S
Zr131       O141   2.378       .  S
O132        H152   0.990       .  S
O132        H157   0.990       .  S
O133        H153   0.990       .  S
Zr134       O135   2.434       .  S
Zr134       O136   2.434       .  S
Zr134       O140   2.377       .  S
Zr134       O139   2.373       .  S
Zr134       O144   2.378       .  S
Zr134       O142   2.374       .  S
O135        H151   0.990       .  S
O136        H150   0.990       .  S
O136        H160   0.990       .  S
Zr137       O140   2.372       .  S
Zr137       O142   2.377       .  S
Zr137       O143   2.377       .  S
Zr138       O139   2.379       .  S
Zr138       O141   2.380       .  S
Zr138       O144   2.375       .  S
O139        H147   0.966       .  S
O142        H146   0.966       .  S
O143        H148   0.966       .  S
C161        C162   1.391       .  A
C161        C166   1.397       .  A
C161        C442   1.484       .  S
C162        C745   1.404   1_554  A
C162        H167   1.082       .  S
C163        C164   1.408       .  A
C163        C744   1.404       .  A
C163        C454   1.503       .  S
C164        C165   1.418       .  A
C164        H168   1.075       .  S
C165        C748   1.420       .  A
C165        C272   1.512       .  S
C166        C747   1.420       .  A
C166        H169   1.076       .  S
C170        C171   1.400       .  A
C170        C175   1.401   1_554  A
C170        C418   1.483       .  S
C171        C754   1.412       .  A
C171        H176   1.080       .  S
C172        C173   1.411       .  A
C172        C753   1.412       .  A
C173        C174   1.402       .  A
C173        H177   1.080       .  S
C174        C757   1.403       .  A
C174        C430   1.489       .  S
C175        C756   1.403       .  A
C175        H178   1.084       .  S
C179        C184   1.405       .  A
C179        C762   1.399       .  A
C179        C391   1.488       .  S
C180        C181   1.400       .  A
C180        C761   1.399       .  A
C180        H185   1.083       .  S
C181        C182   1.403       .  A
C181        C406   1.488       .  S
C182        C183   1.414       .  A
C182        H186   1.077       .  S
C183        C766   1.420       .  A
C183        C279   1.512       .  S
C184        C765   1.420       .  A
C184        H187   1.079       .  S
C188        C189   1.403       .  A
C188        C193   1.396       .  A
C188        C463   1.485       .  S
C189        C772   1.418       .  A
C189        H194   1.078       .  S
C190        C191   1.421       .  A
C190        C771   1.418       .  A
C191        C192   1.408       .  A
C191        H195   1.072       .  S
C192        C775   1.399       .  A
C192        C478   1.499       .  S
C193        C774   1.399   1_554  A
C193        H196   1.083       .  S
O197       Zr209   2.459       .  S
O197        C199   1.291       .  A
O198       Zr235   2.401       .  S
O198        C199   1.283       .  A
C199        C355   1.480       .  S
O200       Zr212   2.443       .  S
O200        C202   1.287       .  A
O201       Zr236   2.419       .  S
O201        C202   1.286       .  A
C202        C367   1.470       .  S
O203       Zr212   2.450       .  S
O203        C205   1.289       .  A
O204       Zr235   2.409       .  S
O204        C205   1.284       .  A
C205        C379   1.477       .  S
O206       Zr209   2.467       .  S
O206        C208   1.292       .  A
O207       Zr236   2.406       .  S
O207        C208   1.284       .  A
C208        C346   1.489       .  S
Zr209       O210   2.433       .  S
Zr209       O211   2.435       .  S
Zr209       O215   2.377       .  S
Zr209       O216   2.373       .  S
Zr209       O239   2.375       .  S
Zr209       O241   2.379       .  S
O210        H253   0.990       .  S
O211        H252   0.990       .  S
O211        H256   0.990       .  S
Zr212       O213   2.435       .  S
Zr212       O214   2.435       .  S
Zr212       O216   2.371       .  S
Zr212       O215   2.369       .  S
Zr212       O240   2.372       .  S
Zr212       O242   2.380       .  S
O213        H254   0.990       .  S
O213        H257   0.990       .  S
O214        H247   0.990       .  S
O215       Zr235   2.374       .  S
O216       Zr236   2.381       .  S
O216        H243   0.965       .  S
O217       Zr229   2.445       .  S
O217        C219   1.288       .  A
O218       Zr236   2.421       .  S
O218        C219   1.286       .  A
C219        C319   1.475       .  S
O220       Zr232   2.444       .  S
O220        C222   1.287       .  A
O221       Zr235   2.419       .  S
O221        C222   1.285       .  A
C222        C310   1.469       .  S
O223       Zr232   2.445       .  S
O223        C225   1.287       .  A
O224       Zr236   2.420       .  S
O224        C225   1.285       .  A
C225        C298   1.467       .  S
O226       Zr229   2.445       .  S
O226        C228   1.288       .  A
O227       Zr235   2.411       .  S
O227        C228   1.284       .  A
C228        C331   1.466       .  S
Zr229       O230   2.436       .  S
Zr229       O231   2.434       .  S
Zr229       O237   2.371       .  S
Zr229       O238   2.373       .  S
Zr229       O241   2.375       .  S
Zr229       O239   2.377       .  S
O230        H250   0.990       .  S
O230        H255   0.990       .  S
O231        H251   0.990       .  S
Zr232       O233   2.434       .  S
Zr232       O234   2.434       .  S
Zr232       O238   2.373       .  S
Zr232       O237   2.372       .  S
Zr232       O242   2.377       .  S
Zr232       O240   2.374       .  S
O233        H249   0.990       .  S
O234        H248   0.990       .  S
O234        H258   0.990       .  S
Zr235       O238   2.373       .  S
Zr235       O240   2.374       .  S
Zr235       O241   2.382       .  S
Zr236       O237   2.378       .  S
Zr236       O239   2.379       .  S
Zr236       O242   2.377       .  S
O237        H245   0.966       .  S
O240        H244   0.966       .  S
O241        H246   0.966       .  S
C259        C260   1.404       .  A
C259        C264   1.396       .  A
C259        C370   1.489       .  S
C260        C261   1.419       .  A
C260        H265   1.078       .  S
C261        C844   1.416       .  A
C262        C263   1.404       .  A
C262        C843   1.416       .  A
C262        H266   1.077       .  S
C263        C846   1.400   1_554  A
C263        C382   1.493       .  S
C264        C845   1.400       .  A
C264        H267   1.083       .  S
C268        C269   1.398       .  A
C268        C273   1.404       .  A
C268        C295   1.483       .  S
C269        C852   1.398       .  A
C269        H274   1.083       .  S
C270        C271   1.402       .  A
C270        C851   1.398   1_554  A
C270        C307   1.484       .  S
C271        C854   1.414       .  A
C271        H275   1.076       .  S
C272        C273   1.419       .  A
C272        C853   1.414       .  A
C273        H276   1.079       .  S
C277        C278   1.406       .  A
C277        C282   1.399       .  A
C277        C343   1.493       .  S
C278        C279   1.423       .  A
C278        H283   1.077       .  S
C279        C862   1.415       .  A
C280        C281   1.400       .  A
C280        C861   1.415       .  A
C280        H284   1.079       .  S
C281        C864   1.396       .  A
C281        C358   1.480       .  S
C282        C863   1.396       .  A
C282        H285   1.085       .  S
C286        C287   1.406       .  A
C286        C291   1.400       .  A
C286        C322   1.494       .  S
C287        C288   1.417       .  A
C287        H292   1.078       .  S
C288        C871   1.413       .  A
C289        C290   1.402       .  A
C289        C870   1.413   1_554  A
C289        H293   1.079       .  S
C290        C873   1.398   1_554  A
C290        C334   1.483       .  S
C291        C872   1.398       .  A
C291        H294   1.083       .  S
C295        C296   1.405       .  A
C295        C300   1.411       .  A
C296        C297   1.401       .  A
C296        H301   1.083       .  S
C297        C298   1.406       .  A
C297        O302   1.372       .  S
C298        C299   1.400       .  A
C299        C300   1.399       .  A
C299        H303   1.084       .  S
C300        O304   1.372       .  S
O302        H306   0.992       .  S
O304        H305   0.992       .  S
C307        C308   1.408       .  A
C307        C312   1.409       .  A
C308        C309   1.399       .  A
C308        H313   1.083       .  S
C309        C310   1.404       .  A
C309        O314   1.371       .  S
C310        C311   1.400       .  A
C311        C312   1.400       .  A
C311        H315   1.079       .  S
C312        O316   1.373       .  S
O314        H318   0.992       .  S
O316        H317   0.992       .  S
C319        C320   1.402       .  A
C319        C324   1.406       .  A
C320        C321   1.403       .  A
C320        H325   1.084       .  S
C321        C322   1.415       .  A
C321        O326   1.372       .  S
C322        C323   1.409       .  A
C323        C324   1.399       .  A
C323        H327   1.083       .  S
C324        O328   1.372       .  S
O326        H330   0.992       .  S
O328        H329   0.992       .  S
C331        C332   1.400       .  A
C331        C336   1.405       .  A
C332        C333   1.398       .  A
C332        H337   1.084       .  S
C333        C334   1.411       .  A
C333        O338   1.373       .  S
C334        C335   1.406       .  A
C335        C336   1.400       .  A
C335        H339   1.083       .  S
C336        O340   1.372       .  S
O338        H342   0.992       .  S
O340        H341   0.992       .  S
C343        C344   1.404       .  A
C343        C348   1.412       .  A
C344        C345   1.393       .  A
C344        H349   1.084       .  S
C345        C346   1.413       .  A
C345        O350   1.373       .  S
C346        C347   1.409       .  A
C347        C348   1.411       .  A
C347        H351   1.083       .  S
C348        O352   1.371       .  S
O350        H354   0.992       .  S
O352        H353   0.992       .  S
C355        C356   1.406       .  A
C355        C360   1.412       .  A
C356        C357   1.406       .  A
C356        H361   1.083       .  S
C357        C358   1.409       .  A
C357        O362   1.371       .  S
C358        C359   1.401       .  A
C359        C360   1.393       .  A
C359        H363   1.084       .  S
C360        O364   1.373       .  S
O362        H366   0.992       .  S
O364        H365   0.992       .  S
C367        C368   1.398       .  A
C367        C372   1.408       .  A
C368        C369   1.398       .  A
C368        H373   1.084       .  S
C369        C370   1.414       .  A
C369        O374   1.374       .  S
C370        C371   1.406       .  A
C371        C372   1.403       .  A
C371        H375   1.083       .  S
C372        O376   1.371       .  S
O374        H378   0.992       .  S
O376        H377   0.992       .  S
C379        C380   1.403       .  A
C379        C384   1.406       .  A
C380        C381   1.404       .  A
C380        H385   1.084       .  S
C381        C382   1.415       .  A
C381        O386   1.372       .  S
C382        C383   1.406       .  A
C383        C384   1.394       .  A
C383        H387   1.083       .  S
C384        O388   1.370       .  S
O386        H390   0.992       .  S
O388        H389   0.992       .  S
C391        C392   1.406       .  A
C391        C396   1.409       .  A
C392        C393   1.405       .  A
C392        H397   1.084       .  S
C393        C394   1.410       .  A
C393        O398   1.371       .  S
C394        C395   1.404       .  A
C395        C396   1.400       .  A
C395        H399   1.083       .  S
C396        O400   1.373       .  S
O398        H402   0.992       .  S
O400        H401   0.992       .  S
C403        C404   1.402       .  A
C403        C408   1.410       .  A
C404        C405   1.402       .  A
C404        H409   1.084       .  S
C405        C406   1.413       .  A
C405        O410   1.372       .  S
C406        C407   1.405       .  A
C407        C408   1.398       .  A
C407        H411   1.083       .  S
C408        O412   1.373       .  S
O410        H414   0.992       .  S
O412        H413   0.992       .  S
C415        C416   1.405       .  A
C415        C420   1.411       .  A
C416        C417   1.403       .  A
C416        H421   1.084       .  S
C417        C418   1.410       .  A
C417        O422   1.372       .  S
C418        C419   1.402       .  A
C419        C420   1.397       .  A
C419        H423   1.084       .  S
C420        O424   1.373       .  S
O422        H426   0.992       .  S
O424        H425   0.992       .  S
C427        C428   1.400       .  A
C427        C432   1.407       .  A
C428        C429   1.403       .  A
C428        H433   1.084       .  S
C429        C430   1.416       .  A
C429        O434   1.372       .  S
C430        C431   1.403       .  A
C431        C432   1.397       .  A
C431        H435   1.084       .  S
C432        O436   1.369       .  S
O434        H438   0.992       .  S
O436        H437   0.988       .  S
C439        C440   1.401       .  A
C439        C444   1.412       .  A
C440        C441   1.394       .  A
C440        H445   1.084       .  S
C441        C442   1.412       .  A
C441        O446   1.372       .  S
C442        C443   1.404       .  A
C443        C444   1.406       .  A
C443        H447   1.083       .  S
C444        O448   1.371       .  S
O446        H450   0.992       .  S
O448        H449   0.992       .  S
C451        C452   1.407       .  A
C451        C456   1.415       .  A
C452        C453   1.408       .  A
C452        H457   1.083       .  S
C453        C454   1.417       .  A
C453        O458   1.372       .  S
C454        C455   1.406       .  A
C455        C456   1.394       .  A
C455        H459   1.080       .  S
C456        O460   1.380       .  S
O458        H462   0.992       .  S
O460        H461   0.992       .  S
C463        C464   1.406       .  A
C463        C468   1.411       .  A
C464        C465   1.403       .  A
C464        H469   1.083       .  S
C465        C466   1.407       .  A
C465        O470   1.371       .  S
C466        C467   1.399       .  A
C467        C468   1.398       .  A
C467        H471   1.083       .  S
C468        O472   1.373       .  S
O470        H474   0.992       .  S
O472        H473   0.992       .  S
C475        C476   1.404       .  A
C475        C480   1.406       .  A
C476        C477   1.404       .  A
C476        H481   1.084       .  S
C477        C478   1.415       .  A
C477        O482   1.372       .  S
C478        C479   1.411       .  A
C479        C480   1.397       .  A
C479        H483   1.083       .  S
C480        O484   1.372       .  S
O482        H486   0.992       .  S
O484        H485   0.992   1_455  S
C487        C488   1.401       .  A
C487        C492   1.404       .  A
C488        C489   1.399       .  A
C488        H493   1.080       .  S
C489        C490   1.409       .  A
C489        O494   1.373       .  S
C490        C491   1.408       .  A
C491        C492   1.400       .  A
C491        H495   1.083       .  S
C492        O496   1.371       .  S
O494        H498   0.992       .  S
O496        H497   0.992       .  S
C499        C500   1.403       .  A
C499        C504   1.409       .  A
C500        C501   1.398       .  A
C500        H505   1.084       .  S
C501        C502   1.407       .  A
C501        O506   1.372       .  S
C502        C503   1.403       .  A
C503        C504   1.401       .  A
C503        H507   1.084       .  S
C504        O508   1.372       .  S
O506        H510   0.992       .  S
O508        H509   0.992       .  S
C511        C512   1.402       .  A
C511        C516   1.408       .  A
C512        C513   1.402       .  A
C512        H517   1.084       .  S
C513        C514   1.410       .  A
C513        O518   1.372       .  S
C514        C515   1.403       .  A
C515        C516   1.400       .  A
C515        H519   1.084       .  S
C516        O520   1.372       .  S
O518        H522   0.991       .  S
O520        H521   0.992       .  S
C523        C524   1.403       .  A
C523        C528   1.413       .  A
C524        C525   1.394       .  A
C524        H529   1.083       .  S
C525        C526   1.412       .  A
C525        O530   1.372       .  S
C526        C527   1.405       .  A
C527        C528   1.406       .  A
C527        H531   1.083       .  S
C528        O532   1.372       .  S
O530        H534   0.992       .  S
O532        H533   0.992       .  S
C535        C536   1.404       .  A
C535        C540   1.411       .  A
C536        C537   1.397       .  A
C536        H541   1.084       .  S
C537        C538   1.409       .  A
C537        O542   1.373       .  S
C538        C539   1.406       .  A
C539        C540   1.405       .  A
C539        H543   1.083       .  S
C540        O544   1.371       .  S
O542        H546   0.992       .  S
O544        H545   0.992       .  S
C547        C548   1.401       .  A
C547        C552   1.405       .  A
C548        C549   1.401       .  A
C548        H553   1.082   1_565  S
C549        C550   1.411       .  A
C549        O554   1.373   1_565  S
C550        C551   1.407       .  A
C551        C552   1.401       .  A
C551        H555   1.084       .  S
C552        O556   1.371       .  S
O554        H558   0.992       .  S
O556        H557   0.992       .  S
C559        C560   1.405       .  A
C559        C564   1.415       .  A
C560        C561   1.393       .  A
C560        H565   1.083       .  S
C561        C562   1.413       .  A
C561        O566   1.371   1_565  S
C562        C563   1.406       .  A
C563        C564   1.408       .  A
C563        H567   1.083       .  S
C564        O568   1.372       .  S
O566        H570   0.992       .  S
O568        H569   0.992       .  S
C571        C572   1.402       .  A
C571        C576   1.407       .  A
C572        C573   1.402       .  A
C572        H577   1.083       .  S
C573        C574   1.407       .  A
C573        O578   1.372       .  S
C574        C575   1.399       .  A
C575        C576   1.397       .  A
C575        H579   1.084       .  S
C576        O580   1.372       .  S
O578        H582   0.992       .  S
O580        H581   0.992       .  S
C583        C584   1.404       .  A
C583        C588   1.409       .  A
C583       C1141   1.496       .  S
C584        H589   1.083       .  S
C585        C586   1.395       .  A
C585       C1153   1.471       .  S
C586        C587   1.414       .  A
C586        H590   1.079       .  S
C587        C870   1.509       .  S
C588        H591   1.078       .  S
C592        C593   1.404       .  A
C592        C597   1.397       .  A
C592       C1120   1.486       .  S
C593        H598   1.077       .  S
C594        C595   1.420   1_554  A
C594        C772   1.520       .  S
C595        C596   1.405       .  A
C595        H599   1.076       .  S
C596       C1132   1.487       .  S
C597        H600   1.082       .  S
O601       Zr613   2.450   1_565  S
O601        C603   1.288       .  A
O602       Zr639   2.418       .  S
O602        C603   1.285   1_545  A
C603       C1129   1.472       .  S
O604       Zr616   2.465       .  S
O604        C606   1.292       .  A
O605       Zr640   2.403       .  S
O605        C606   1.283   1_545  A
C606       C1144   1.488       .  S
O607       Zr616   2.447       .  S
O607        C609   1.288       .  A
O608       Zr639   2.413       .  S
O608        C609   1.284   1_545  A
C609       C1156   1.463       .  S
O610       Zr613   2.449   1_565  S
O610        C612   1.289       .  A
O611       Zr640   2.416       .  S
O611        C612   1.286   1_545  A
C612       C1117   1.482       .  S
Zr613       O614   2.434   1_545  S
Zr613       O615   2.434       .  S
Zr613       O619   2.374   1_545  S
Zr613       O620   2.371   1_545  S
Zr613       O643   2.379       .  S
Zr613       O645   2.372       .  S
O614        H657   0.990       .  S
O615        H656   0.990       .  S
O615        H660   0.990   1_545  S
Zr616       O617   2.435       .  S
Zr616       O618   2.435       .  S
Zr616       O620   2.367       .  S
Zr616       O619   2.378       .  S
Zr616       O644   2.378   1_565  S
Zr616       O646   2.370   1_565  S
O617        H658   0.990       .  S
O617        H661   0.990       .  S
O618        H651   0.990       .  S
O619       Zr639   2.376   1_565  S
O620       Zr640   2.378   1_565  S
O620        H647   0.965       .  S
O621       Zr633   2.451       .  S
O621        C623   1.289       .  A
O622       Zr640   2.419       .  S
O622        C623   1.286       .  A
C623       C1093   1.472       .  S
O624       Zr636   2.440       .  S
O624        C626   1.287       .  A
O625       Zr639   2.416       .  S
O625        C626   1.285       .  A
C626       C1081   1.472       .  S
O627       Zr636   2.445       .  S
O627        C629   1.287       .  A
O628       Zr640   2.415       .  S
O628        C629   1.285       .  A
C629       C1069   1.471       .  S
O630       Zr633   2.460       .  S
O630        C632   1.291       .  A
O631       Zr639   2.402       .  S
O631        C632   1.283       .  A
C632       C1108   1.484       .  S
Zr633       O634   2.435       .  S
Zr633       O635   2.434       .  S
Zr633       O641   2.379       .  S
Zr633       O642   2.374       .  S
Zr633       O645   2.373       .  S
Zr633       O643   2.381       .  S
O634        H654   0.990       .  S
O634        H659   0.990       .  S
O635        H655   0.990       .  S
Zr636       O637   2.434       .  S
Zr636       O638   2.435       .  S
Zr636       O642   2.375       .  S
Zr636       O641   2.373       .  S
Zr636       O646   2.371       .  S
Zr636       O644   2.374       .  S
O637        H653   0.990       .  S
O638        H652   0.990       .  S
O638        H662   0.990       .  S
Zr639       O642   2.374       .  S
Zr639       O644   2.380       .  S
Zr639       O645   2.377       .  S
Zr640       O641   2.379       .  S
Zr640       O643   2.378       .  S
Zr640       O646   2.373       .  S
O641        H649   0.966       .  S
O644        H648   0.966       .  S
O645        H650   0.966       .  S
C663        C664   1.395       .  A
C663        C668   1.400       .  A
C663       C1096   1.481       .  S
C664        H669   1.084       .  S
C665        C666   1.406       .  A
C665       C1105   1.490       .  S
C666        C667   1.416   1_556  A
C666        H670   1.077       .  S
C667        C843   1.511       .  S
C668        H671   1.079       .  S
C672        C673   1.401       .  A
C672        C677   1.404       .  A
C672       C1072   1.484       .  S
C673        H678   1.083       .  S
C674        C675   1.398       .  A
C674       C1084   1.476       .  S
C675        C676   1.412   1_556  A
C675        H679   1.080       .  S
C676        C754   1.500       .  S
C677        H680   1.081       .  S
O681       Zr693   2.466       .  S
O681        C683   1.292       .  A
O682       Zr719   2.388   1_455  S
O682        C683   1.280       .  A
C683       C1033   1.491       .  S
O684       Zr696   2.451       .  S
O684        C686   1.288       .  A
O685       Zr720   2.413   1_455  S
O685        C686   1.284       .  A
C686       C1048   1.471       .  S
O687       Zr696   2.445       .  S
O687        C689   1.288       .  A
O688       Zr719   2.421   1_455  S
O688        C689   1.286       .  A
C689       C1057   1.478       .  S
O690       Zr693   2.447       .  S
O690        C692   1.289       .  A
O691       Zr720   2.419   1_455  S
O691        C692   1.287       .  A
C692       C1021   1.477       .  S
Zr693       O694   2.433       .  S
Zr693       O695   2.435       .  S
Zr693       O699   2.369       .  S
Zr693       O700   2.374       .  S
Zr693       O723   2.382   1_455  S
Zr693       O725   2.368   1_455  S
O694        H737   0.990       .  S
O695        H736   0.990       .  S
O695        H740   0.990       .  S
Zr696       O697   2.436       .  S
Zr696       O698   2.435       .  S
Zr696       O700   2.370       .  S
Zr696       O699   2.369       .  S
Zr696       O724   2.380   1_455  S
Zr696       O726   2.375   1_455  S
O697        H738   0.990       .  S
O697        H741   0.990       .  S
O698        H731   0.990       .  S
O699       Zr719   2.373   1_455  S
O700       Zr720   2.381   1_455  S
O700        H727   0.966       .  S
O701       Zr713   2.452       .  S
O701        C703   1.290       .  A
O702       Zr720   2.410       .  S
O702        C703   1.284       .  A
C703        C997   1.479       .  S
O704       Zr716   2.454       .  S
O704        C706   1.290       .  A
O705       Zr719   2.405       .  S
O705        C706   1.283       .  A
C706        C985   1.477       .  S
O707       Zr716   2.453       .  S
O707        C709   1.290       .  A
O708       Zr720   2.421       .  S
O708        C709   1.287       .  A
C709        C976   1.482       .  S
O710       Zr713   2.453       .  S
O710        C712   1.289       .  A
O711       Zr719   2.420       .  S
O711        C712   1.286       .  A
C712       C1009   1.476       .  S
Zr713       O714   2.435       .  S
Zr713       O715   2.434       .  S
Zr713       O721   2.376       .  S
Zr713       O722   2.376       .  S
Zr713       O725   2.376       .  S
Zr713       O723   2.378       .  S
O714        H734   0.990       .  S
O714        H739   0.990       .  S
O715        H735   0.990       .  S
Zr716       O717   2.434       .  S
Zr716       O718   2.434       .  S
Zr716       O722   2.377       .  S
Zr716       O721   2.373       .  S
Zr716       O726   2.378       .  S
Zr716       O724   2.374       .  S
O717        H733   0.990       .  S
O718        H732   0.990       .  S
O718        H742   0.990       .  S
Zr719       O722   2.372       .  S
Zr719       O724   2.377       .  S
Zr719       O725   2.377       .  S
Zr720       O721   2.379       .  S
Zr720       O723   2.380       .  S
Zr720       O726   2.375       .  S
O721        H729   0.966       .  S
O724        H728   0.966       .  S
O725        H730   0.966       .  S
C743        C744   1.391       .  A
C743        C748   1.397       .  A
C743       C1024   1.484       .  S
C744        H749   1.082       .  S
C745        C746   1.408       .  A
C745       C1036   1.503       .  S
C746        C747   1.418   1_556  A
C746        H750   1.075       .  S
C747        C854   1.512       .  S
C748        H751   1.076       .  S
C752        C753   1.400       .  A
C752        C757   1.401       .  A
C752       C1000   1.483       .  S
C753        H758   1.080       .  S
C754        C755   1.411   1_554  A
C755        C756   1.402       .  A
C755        H759   1.080       .  S
C756       C1012   1.489       .  S
C757        H760   1.084       .  S
C761        C766   1.405       .  A
C761        C973   1.488       .  S
C762        C763   1.400   1_554  A
C762        H767   1.083       .  S
C763        C764   1.403       .  A
C763        C988   1.488       .  S
C764        C765   1.414   1_556  A
C764        H768   1.077       .  S
C765        C861   1.512       .  S
C766        H769   1.079       .  S
C770        C771   1.403       .  A
C770        C775   1.396       .  A
C770       C1045   1.485       .  S
C771        H776   1.078       .  S
C772        C773   1.421   1_554  A
C773        C774   1.408       .  A
C773        H777   1.072       .  S
C774       C1060   1.499       .  S
C775        H778   1.083       .  S
O779       Zr791   2.459       .  S
O779        C781   1.291       .  A
O780       Zr817   2.401       .  S
O780        C781   1.283       .  A
C781        C937   1.480       .  S
O782       Zr794   2.443       .  S
O782        C784   1.287       .  A
O783       Zr818   2.419       .  S
O783        C784   1.286       .  A
C784        C949   1.470       .  S
O785       Zr794   2.450       .  S
O785        C787   1.289       .  A
O786       Zr817   2.409       .  S
O786        C787   1.284       .  A
C787        C961   1.477       .  S
O788       Zr791   2.467       .  S
O788        C790   1.292       .  A
O789       Zr818   2.406       .  S
O789        C790   1.284       .  A
C790        C928   1.489       .  S
Zr791       O792   2.433       .  S
Zr791       O793   2.435       .  S
Zr791       O797   2.377       .  S
Zr791       O798   2.373       .  S
Zr791       O821   2.375       .  S
Zr791       O823   2.379       .  S
O792        H835   0.990       .  S
O793        H834   0.990       .  S
O793        H838   0.990       .  S
Zr794       O795   2.435       .  S
Zr794       O796   2.435       .  S
Zr794       O798   2.371       .  S
Zr794       O797   2.369       .  S
Zr794       O822   2.372       .  S
Zr794       O824   2.380       .  S
O795        H836   0.990       .  S
O795        H839   0.990       .  S
O796        H829   0.990       .  S
O797       Zr817   2.374       .  S
O798       Zr818   2.381       .  S
O798        H825   0.965       .  S
O799       Zr811   2.445       .  S
O799        C801   1.288       .  A
O800       Zr818   2.421       .  S
O800        C801   1.286       .  A
C801        C901   1.475       .  S
O802       Zr814   2.444       .  S
O802        C804   1.287       .  A
O803       Zr817   2.419       .  S
O803        C804   1.285       .  A
C804        C892   1.469       .  S
O805       Zr814   2.445       .  S
O805        C807   1.287       .  A
O806       Zr818   2.420       .  S
O806        C807   1.285       .  A
C807        C880   1.467       .  S
O808       Zr811   2.445       .  S
O808        C810   1.288       .  A
O809       Zr817   2.411       .  S
O809        C810   1.284       .  A
C810        C913   1.466       .  S
Zr811       O812   2.436       .  S
Zr811       O813   2.434       .  S
Zr811       O819   2.371       .  S
Zr811       O820   2.373       .  S
Zr811       O823   2.375       .  S
Zr811       O821   2.377       .  S
O812        H832   0.990       .  S
O812        H837   0.990       .  S
O813        H833   0.990       .  S
Zr814       O815   2.434       .  S
Zr814       O816   2.434       .  S
Zr814       O820   2.373       .  S
Zr814       O819   2.372       .  S
Zr814       O824   2.377       .  S
Zr814       O822   2.374       .  S
O815        H831   0.990       .  S
O816        H830   0.990       .  S
O816        H840   0.990       .  S
Zr817       O820   2.373       .  S
Zr817       O822   2.374       .  S
Zr817       O823   2.382       .  S
Zr818       O819   2.378       .  S
Zr818       O821   2.379       .  S
Zr818       O824   2.377       .  S
O819        H827   0.966       .  S
O822        H826   0.966       .  S
O823        H828   0.966       .  S
C841        C842   1.404       .  A
C841        C846   1.396       .  A
C841        C952   1.489       .  S
C842        C843   1.419   1_556  A
C842        H847   1.078       .  S
C844        C845   1.404       .  A
C844        H848   1.077       .  S
C845        C964   1.493       .  S
C846        H849   1.083       .  S
C850        C851   1.398       .  A
C850        C855   1.404       .  A
C850        C877   1.483       .  S
C851        H856   1.083       .  S
C852        C853   1.402       .  A
C852        C889   1.484       .  S
C853        H857   1.076       .  S
C854        C855   1.419   1_554  A
C855        H858   1.079       .  S
C859        C860   1.406       .  A
C859        C864   1.399   1_556  A
C859        C925   1.493       .  S
C860        C861   1.423   1_556  A
C860        H865   1.077       .  S
C862        C863   1.400       .  A
C862        H866   1.079       .  S
C863        C940   1.480       .  S
C864        H867   1.085       .  S
C868        C869   1.406       .  A
C868        C873   1.400       .  A
C868        C904   1.494       .  S
C869        C870   1.417       .  A
C869        H874   1.078       .  S
C871        C872   1.402       .  A
C871        H875   1.079       .  S
C872        C916   1.483       .  S
C873        H876   1.083       .  S
C877        C878   1.405       .  A
C877        C882   1.411       .  A
C878        C879   1.401       .  A
C878        H883   1.083       .  S
C879        C880   1.406       .  A
C879        O884   1.372       .  S
C880        C881   1.400       .  A
C881        C882   1.399       .  A
C881        H885   1.084       .  S
C882        O886   1.372       .  S
O884        H888   0.992       .  S
O886        H887   0.992       .  S
C889        C890   1.408       .  A
C889        C894   1.409       .  A
C890        C891   1.399       .  A
C890        H895   1.083       .  S
C891        C892   1.404       .  A
C891        O896   1.371       .  S
C892        C893   1.400       .  A
C893        C894   1.400       .  A
C893        H897   1.079       .  S
C894        O898   1.373       .  S
O896        H900   0.992       .  S
O898        H899   0.992       .  S
C901        C902   1.402       .  A
C901        C906   1.406       .  A
C902        C903   1.403       .  A
C902        H907   1.084       .  S
C903        C904   1.415       .  A
C903        O908   1.372       .  S
C904        C905   1.409       .  A
C905        C906   1.399       .  A
C905        H909   1.083       .  S
C906        O910   1.372       .  S
O908        H912   0.992       .  S
O910        H911   0.992       .  S
C913        C914   1.400       .  A
C913        C918   1.405       .  A
C914        C915   1.398       .  A
C914        H919   1.084       .  S
C915        C916   1.411       .  A
C915        O920   1.373       .  S
C916        C917   1.406       .  A
C917        C918   1.400       .  A
C917        H921   1.083       .  S
C918        O922   1.372       .  S
O920        H924   0.992       .  S
O922        H923   0.992       .  S
C925        C926   1.404       .  A
C925        C930   1.412       .  A
C926        C927   1.393       .  A
C926        H931   1.084       .  S
C927        C928   1.413       .  A
C927        O932   1.373       .  S
C928        C929   1.409       .  A
C929        C930   1.411       .  A
C929        H933   1.083       .  S
C930        O934   1.371       .  S
O932        H936   0.992       .  S
O934        H935   0.992       .  S
C937        C938   1.406       .  A
C937        C942   1.412       .  A
C938        C939   1.406       .  A
C938        H943   1.083       .  S
C939        C940   1.409       .  A
C939        O944   1.371       .  S
C940        C941   1.401       .  A
C941        C942   1.393       .  A
C941        H945   1.084       .  S
C942        O946   1.373       .  S
O944        H948   0.992       .  S
O946        H947   0.992       .  S
C949        C950   1.398       .  A
C949        C954   1.408       .  A
C950        C951   1.398       .  A
C950        H955   1.084       .  S
C951        C952   1.414       .  A
C951        O956   1.374       .  S
C952        C953   1.406       .  A
C953        C954   1.403       .  A
C953        H957   1.083       .  S
C954        O958   1.371       .  S
O956        H960   0.992       .  S
O958        H959   0.992       .  S
C961        C962   1.403       .  A
C961        C966   1.406       .  A
C962        C963   1.404       .  A
C962        H967   1.084       .  S
C963        C964   1.415       .  A
C963        O968   1.372       .  S
C964        C965   1.406       .  A
C965        C966   1.394       .  A
C965        H969   1.083       .  S
C966        O970   1.370       .  S
O968        H972   0.992       .  S
O970        H971   0.992       .  S
C973        C974   1.406       .  A
C973        C978   1.409       .  A
C974        C975   1.405       .  A
C974        H979   1.084       .  S
C975        C976   1.410       .  A
C975        O980   1.371       .  S
C976        C977   1.404       .  A
C977        C978   1.400       .  A
C977        H981   1.083       .  S
C978        O982   1.373       .  S
O980        H984   0.992       .  S
O982        H983   0.992       .  S
C985        C986   1.402       .  A
C985        C990   1.410       .  A
C986        C987   1.402       .  A
C986        H991   1.084       .  S
C987        C988   1.413       .  A
C987        O992   1.372       .  S
C988        C989   1.405       .  A
C989        C990   1.398       .  A
C989        H993   1.083       .  S
C990        O994   1.373       .  S
O992        H996   0.992       .  S
O994        H995   0.992       .  S
C997        C998   1.405       .  A
C997       C1002   1.411       .  A
C998        C999   1.403       .  A
C998       H1003   1.084       .  S
C999       C1000   1.410       .  A
C999       O1004   1.372       .  S
C1000      C1001   1.402       .  A
C1001      C1002   1.397       .  A
C1001      H1005   1.084       .  S
C1002      O1006   1.373       .  S
O1004      H1008   0.992       .  S
O1006      H1007   0.992       .  S
C1009      C1010   1.400       .  A
C1009      C1014   1.407       .  A
C1010      C1011   1.403       .  A
C1010      H1015   1.084       .  S
C1011      C1012   1.416       .  A
C1011      O1016   1.372       .  S
C1012      C1013   1.403       .  A
C1013      C1014   1.397       .  A
C1013      H1017   1.084       .  S
C1014      O1018   1.369       .  S
O1016      H1020   0.992       .  S
O1018      H1019   0.988       .  S
C1021      C1022   1.401       .  A
C1021      C1026   1.412       .  A
C1022      C1023   1.394       .  A
C1022      H1027   1.084       .  S
C1023      C1024   1.412       .  A
C1023      O1028   1.372       .  S
C1024      C1025   1.404       .  A
C1025      C1026   1.406       .  A
C1025      H1029   1.083       .  S
C1026      O1030   1.371       .  S
O1028      H1032   0.992       .  S
O1030      H1031   0.992       .  S
C1033      C1034   1.407       .  A
C1033      C1038   1.415       .  A
C1034      C1035   1.408       .  A
C1034      H1039   1.083       .  S
C1035      C1036   1.417       .  A
C1035      O1040   1.372       .  S
C1036      C1037   1.406       .  A
C1037      C1038   1.394       .  A
C1037      H1041   1.080       .  S
C1038      O1042   1.380       .  S
O1040      H1044   0.992       .  S
O1042      H1043   0.992       .  S
C1045      C1046   1.406       .  A
C1045      C1050   1.411       .  A
C1046      C1047   1.403       .  A
C1046      H1051   1.083       .  S
C1047      C1048   1.407       .  A
C1047      O1052   1.371       .  S
C1048      C1049   1.399       .  A
C1049      C1050   1.398       .  A
C1049      H1053   1.083       .  S
C1050      O1054   1.373       .  S
O1052      H1056   0.992       .  S
O1054      H1055   0.992       .  S
C1057      C1058   1.404       .  A
C1057      C1062   1.406       .  A
C1058      C1059   1.404       .  A
C1058      H1063   1.084       .  S
C1059      C1060   1.415       .  A
C1059      O1064   1.372       .  S
C1060      C1061   1.411       .  A
C1061      C1062   1.397       .  A
C1061      H1065   1.083       .  S
C1062      O1066   1.372       .  S
O1064      H1068   0.992       .  S
O1066      H1067   0.992   1_455  S
C1069      C1070   1.401       .  A
C1069      C1074   1.404       .  A
C1070      C1071   1.399       .  A
C1070      H1075   1.080       .  S
C1071      C1072   1.409       .  A
C1071      O1076   1.373       .  S
C1072      C1073   1.408       .  A
C1073      C1074   1.400       .  A
C1073      H1077   1.083       .  S
C1074      O1078   1.371       .  S
O1076      H1080   0.992       .  S
O1078      H1079   0.992       .  S
C1081      C1082   1.403       .  A
C1081      C1086   1.409       .  A
C1082      C1083   1.398       .  A
C1082      H1087   1.084       .  S
C1083      C1084   1.407       .  A
C1083      O1088   1.372       .  S
C1084      C1085   1.403       .  A
C1085      C1086   1.401       .  A
C1085      H1089   1.084       .  S
C1086      O1090   1.372       .  S
O1088      H1092   0.992       .  S
O1090      H1091   0.992       .  S
C1093      C1094   1.402       .  A
C1093      C1098   1.408       .  A
C1094      C1095   1.402       .  A
C1094      H1099   1.084       .  S
C1095      C1096   1.410       .  A
C1095      O1100   1.372       .  S
C1096      C1097   1.403       .  A
C1097      C1098   1.400       .  A
C1097      H1101   1.084       .  S
C1098      O1102   1.372       .  S
O1100      H1104   0.991       .  S
O1102      H1103   0.992       .  S
C1105      C1106   1.403       .  A
C1105      C1110   1.413       .  A
C1106      C1107   1.394       .  A
C1106      H1111   1.083       .  S
C1107      C1108   1.412       .  A
C1107      O1112   1.372       .  S
C1108      C1109   1.405       .  A
C1109      C1110   1.406       .  A
C1109      H1113   1.083       .  S
C1110      O1114   1.372       .  S
O1112      H1116   0.992       .  S
O1114      H1115   0.992       .  S
C1117      C1118   1.404       .  A
C1117      C1122   1.411       .  A
C1118      C1119   1.397       .  A
C1118      H1123   1.084       .  S
C1119      C1120   1.409       .  A
C1119      O1124   1.373       .  S
C1120      C1121   1.406       .  A
C1121      C1122   1.405       .  A
C1121      H1125   1.083       .  S
C1122      O1126   1.371       .  S
O1124      H1128   0.992       .  S
O1126      H1127   0.992       .  S
C1129      C1130   1.401       .  A
C1129      C1134   1.405       .  A
C1130      C1131   1.401       .  A
C1130      H1135   1.082   1_565  S
C1131      C1132   1.411       .  A
C1131      O1136   1.373   1_565  S
C1132      C1133   1.407       .  A
C1133      C1134   1.401       .  A
C1133      H1137   1.084       .  S
C1134      O1138   1.371       .  S
O1136      H1140   0.992       .  S
O1138      H1139   0.992       .  S
C1141      C1142   1.405       .  A
C1141      C1146   1.415       .  A
C1142      C1143   1.393       .  A
C1142      H1147   1.083       .  S
C1143      C1144   1.413       .  A
C1143      O1148   1.371   1_565  S
C1144      C1145   1.406       .  A
C1145      C1146   1.408       .  A
C1145      H1149   1.083       .  S
C1146      O1150   1.372       .  S
O1148      H1152   0.992       .  S
O1150      H1151   0.992       .  S
C1153      C1154   1.402       .  A
C1153      C1158   1.407       .  A
C1154      C1155   1.402       .  A
C1154      H1159   1.083       .  S
C1155      C1156   1.407       .  A
C1155      O1160   1.372       .  S
C1156      C1157   1.399       .  A
C1157      C1158   1.397       .  A
C1157      H1161   1.084       .  S
C1158      O1162   1.372       .  S
O1160      H1164   0.992       .  S
O1162      H1163   0.992       .  S
