geometry optimzed in LAMMPS
_audit_creation_date              2020-12-01 
_audit_creation_method            'lammps2cif' 
_symmetry_space_group_name_H-M    'P1' 
_symmetry_Int_Tables_number       1 
_symmetry_cell_setting            triclinic 
loop_ 
_symmetry_equiv_pos_as_xyz 
  x,y,z 
_cell_length_a                    41.8692707 
_cell_length_b                    41.95008008724689 
_cell_length_c                    24.60020685716361 
_cell_angle_alpha                 89.92548615430559 
_cell_angle_beta                  89.50478461358342 
_cell_angle_gamma                 130.6042120422215 
loop_ 
_atom_site_label 
_atom_site_type_symbol 
_atom_site_fract_x 
_atom_site_fract_y 
_atom_site_fract_z 
_atom_site_charge 
C1          C  0.35599369  0.14833009  0.90874757     0.86700
C2          C  0.37754516  0.19429176  0.91971108    -0.53600
C3          C  0.36066605  0.20920007  0.89370399     0.09600
C4          C  0.32220795  0.17527933  0.85877857     0.20600
C5          C  0.30961896  0.12370814  0.92368983    -0.54300
C6          C  0.29222800  0.13825653  0.89917236     0.09700
C7          C  0.35387484  0.14389066  0.84673327    -0.53800
C8          C  0.33790788  0.15922276  0.81926194     0.10300
H9          H  0.40338951  0.21299640  0.94795531     0.14800
H10         H  0.30782869  0.18633133  0.83768889     0.00500
H11         H  0.29086212  0.09621354  0.94986181     0.15100
H12         H  0.36307077  0.12779778  0.82754193     0.14900
C13         C  0.34789570  0.14492142  0.66572101     0.86700
C14         C  0.30184455  0.12316086  0.65639468    -0.53600
C15         C  0.28710044  0.14011123  0.68263555     0.09600
C16         C  0.32024382  0.17646760  0.72125157     0.20600
C17         C  0.37205988  0.19195376  0.65440083    -0.54300
C18         C  0.35788492  0.20877897  0.68293795     0.09700
C19         C  0.35153270  0.14399017  0.72720659    -0.53800
C20         C  0.33626974  0.15897965  0.75768768     0.10300
H21         H  0.28287193  0.09740432  0.62799018     0.14800
H22         H  0.30935060  0.19039860  0.74442277     0.00500
H23         H  0.39927675  0.21161241  0.62814327     0.15100
H24         H  0.36613081  0.13243632  0.74381741     0.14900
C25         C  0.12644199  0.37836117  0.17203189     0.86700
C26         C  0.17209993  0.39768376  0.15859774    -0.53600
C27         C  0.18596261  0.38077597  0.18706639     0.09600
C28         C  0.15193920  0.34395462  0.22472334     0.20600
C29         C  0.10132566  0.33159352  0.15992317    -0.54300
C30         C  0.11491949  0.31308593  0.18507291     0.09700
C31         C  0.12478509  0.38035304  0.23333223    -0.53800
C32         C  0.13712239  0.36235771  0.26247013     0.10300
H33         H  0.19137815  0.42019638  0.12633421     0.14800
H34         H  0.16424385  0.33102399  0.24655124     0.00500
H35         H  0.07604821  0.31506475  0.13066912     0.15100
H36         H  0.11385226  0.39534138  0.25096708     0.14900
C37         C  0.12163604  0.37635060  0.41504119     0.86700
C38         C  0.09721926  0.33018614  0.42739488    -0.53600
C39         C  0.11132725  0.31316944  0.40066953     0.09600
C40         C  0.14947277  0.34402533  0.36233252     0.20600
C41         C  0.16784561  0.39770608  0.42660921    -0.54300
C42         C  0.18279063  0.38103705  0.39944481     0.09700
C43         C  0.12207489  0.37971190  0.35281843    -0.53800
C44         C  0.13571453  0.36224715  0.32411342     0.10300
H45         H  0.07154243  0.31251562  0.45697348     0.14800
H46         H  0.16072928  0.33006894  0.34027218     0.00500
H47         H  0.18837443  0.42491867  0.45178631     0.15100
H48         H  0.11226876  0.39549612  0.33460266     0.14900
Zr49       Zr  0.02019521  0.48095610  0.98912664     2.17500
O50         O  0.02725894  0.46353646  0.89803438    -0.51100
O51         O  0.04878574  0.45463247  0.03993634    -0.74300
O52         O  0.09350323  0.02990190  0.95947493    -0.81100
O53         O  0.40583784  0.37814143  0.99628211    -0.82900
O54         O  0.12098096  0.09440951  0.98983834    -0.78500
O55         O  0.46797996  0.40864513  0.95356236    -0.90100
O56         O  0.04358368  0.46378696  0.12978091    -0.76100
O57         O  0.05663109  0.03018654  0.05766104    -0.85600
O58         O  0.47628037  0.44662628  0.06240986    -0.85300
O59         O  0.02909162  0.04140231  0.95723942    -0.72000
O60         O  0.45517865  0.46597150  0.96377300    -0.84200
Zr61       Zr  0.45745958  0.04141039  0.09170108     2.26400
Zr62       Zr  0.06497245  0.09006045  0.03053244     2.06300
Zr63       Zr  0.41274775  0.43332834  0.04414582     2.10000
Zr64       Zr  0.01228993  0.49615529  0.13897885     1.78800
O65         O  0.35035803  0.39793418  0.98866114    -0.93000
O66         O  0.08176201  0.04369350  0.18005633    -0.40800
O67         O  0.44893770  0.48103960  0.11790787    -0.77400
O68         O  0.02306982  0.05783865  0.11166859    -0.96100
O69         O  0.50147994  0.07545895  0.01300318    -0.89400
O70         O  0.42123926  0.99294301  0.01906324    -0.92200
C71         C  0.05376338  0.45160777  0.09059230     1.01500
C72         C  0.42951090  0.37661300  0.96477174     1.14400
C73         C  0.12435784  0.06925200  0.96657250     1.05200
O74         O  0.12786120  0.13831932  0.08444233    -0.94400
O75         O  0.07038461  0.14527640  0.07571280    -0.90100
O76         O  0.00727526  0.11659165  0.11533305    -0.83300
C77         C  0.04614032  0.14766146  0.10434424     1.11900
O78         O  0.46857564  0.00713096  0.84931298    -0.96400
Zr79       Zr  0.46539010  0.02700969  0.94079947     1.88900
O80         O  0.43320366  0.07195072  0.04058898    -0.73000
O81         O  0.09193189  0.13973747  0.95536924    -0.52300
O82         O  0.00367807  0.08282574  0.87480408    -0.97000
O83         O  0.40064115  0.48688504  0.89053670    -0.54200
O84         O  0.43979862  0.06463386  0.95078650    -0.73500
C85         C  0.43035907  0.07749844  0.98998411     0.98800
O86         O  0.44807380  0.05319348  0.18538819    -0.62400
O87         O  0.38072737  0.37594726  0.10967374    -0.57200
O88         O  0.38518763  0.49331264  0.11932133    -0.93800
O89         O  0.36136648  0.42865186  0.09908093    -0.92300
O90         O  0.46864635  0.43080729  0.18959066    -0.92600
O91         O  0.51164226  0.01158947  0.23063026    -0.91400
C92         C  0.35615819  0.45304513  0.11991915     1.17700
H93         H  0.47044997  0.42068146  0.06996321     0.33600
H94         H  0.03685318  0.07742665  0.14137172     0.44400
H95         H  0.39588206  0.48708567  0.01223876     0.38000
H96         H  0.04648568  0.05313783  0.92477742     0.34500
H97         H  0.08254202  0.02526829  0.20411140     0.26200
H98         H  0.07079926  0.14311192  0.95084909     0.32200
H99         H  0.53403199  0.10991642  0.90410725     0.38100
H100        H  0.48698056  0.42473852  0.20024249     0.32500
H101        H  0.35800562  0.35045380  0.08952865     0.31400
H102        H  0.36127506  0.41126543  0.95232243     0.33100
H103        H  0.40182735  0.00232307  0.86466027     0.32100
H104        H  0.99004487  0.01968774  0.22756790     0.36100
H105        H  0.43121311  0.02527753  0.20326610     0.28800
H106        H  0.05025549  0.46263083  0.90013555     0.33000
H107        H  0.47222271  0.98626905  0.85459155     0.35900
H108        H  0.40197886  0.37287588  0.11538313     0.28500
H109        H  0.47613649  0.06924894  0.20199844     0.41400
H110        H  0.14761505  0.16287948  0.06023721     0.31400
H111        H  0.10243501  0.05232278  0.15075142     0.39000
H112        H  0.38019412  0.48385222  0.91565336     0.30900
H113        H  0.11682366  0.16689986  0.97022270     0.31000
H114        H  0.03870556  0.48870471  0.87580135     0.31200
Zr115      Zr  0.45498367  0.04167772  0.48469528     2.17500
O116        O  0.44837027  0.05472806  0.39066486    -0.51100
O117        O  0.42280289  0.06531390  0.53347536    -0.74300
O118        O  0.38219319  0.49009411  0.46008356    -0.81100
O119        O  0.06635746  0.14429598  0.49370983    -0.82900
O120        O  0.35377557  0.42672602  0.49583324    -0.78500
O121        O  0.00201368  0.11494698  0.46011198    -0.90100
O122        O  0.42467931  0.05443453  0.62353372    -0.76100
O123        O  0.41757112  0.99280148  0.55795416    -0.85600
O124        O  0.49710217  0.07542181  0.56321525    -0.85300
O125        O  0.44359008  0.47863503  0.46240435    -0.72000
O126        O  0.01934800  0.05607165  0.46053762    -0.84200
Zr127      Zr  0.01749016  0.48255200  0.59403916     2.26400
Zr128      Zr  0.41011407  0.43358464  0.54051014     2.06300
Zr129      Zr  0.06369132  0.09057790  0.53750785     2.10000
Zr130      Zr  0.46005621  0.02635753  0.63586684     1.78800
O131        O  0.12215023  0.12929192  0.47261693    -0.93000
O132        O  0.40360015  0.48231626  0.69278237    -0.40800
O133        O  0.02932524  0.04554320  0.61547576    -0.77400
O134        O  0.45542355  0.46884962  0.61695539    -0.96100
O135        O  0.47335336  0.44720131  0.51657669    -0.89400
O136        O  0.05335660  0.02906960  0.51570520    -0.92200
C137        C  0.41520465  0.06678100  0.58377446     1.01500
C138        C  0.04090750  0.14642044  0.46876887     1.14400
C139        C  0.35090139  0.45098141  0.46850973     1.05200
O140        O  0.34837643  0.39685533  0.59955097    -0.94400
O141        O  0.40681668  0.38088960  0.59040856    -0.90100
O142        O  0.47160193  0.41053069  0.62156841    -0.83300
C143        C  0.43218981  0.37905672  0.61650676     1.11900
O144        O  0.51003284  0.02009085  0.34959683    -0.96400
Zr145      Zr  0.01293753  0.49794679  0.44247150     1.88900
O146        O  0.04378609  0.45323804  0.54521284    -0.73000
O147        O  0.38230700  0.37643216  0.47746020    -0.52300
O148        O  0.46711732  0.42950444  0.38580060    -0.97000
O149        O  0.07432204  0.03983237  0.39046145    -0.54200
O150        O  0.03971977  0.46158771  0.45492309    -0.73500
C151        C  0.04847113  0.44879153  0.49490083     0.98800
O152        O  0.03151482  0.47480233  0.68712611    -0.62400
O153        O  0.10132471  0.14610860  0.60455481    -0.57200
O154        O  0.09237211  0.03405831  0.61619931    -0.93800
O155        O  0.11978724  0.09759854  0.58029442    -0.92300
O156        O  0.00888002  0.09924534  0.68287190    -0.92600
O157        O  0.46914531  0.01385070  0.72885312    -0.91400
C158        C  0.12282240  0.07333306  0.60675590     1.17700
H159        H  0.00612705  0.10343586  0.56714974     0.33600
H160        H  0.44296779  0.45070374  0.64861306     0.44400
H161        H  0.07987837  0.03580414  0.50830495     0.38000
H162        H  0.42515215  0.46552044  0.43155541     0.34500
H163        H  0.39166514  0.99223655  0.70988596     0.26200
H164        H  0.35593528  0.35168566  0.49488172     0.32200
H165        H  0.43860242  0.42035661  0.38399820     0.38100
H166        H  0.47843553  0.08564541  0.71527042     0.32500
H167        H  0.12091284  0.17233054  0.58303660     0.31400
H168        H  0.14023179  0.15887221  0.48450172     0.33100
H169        H  0.09325722  0.03667307  0.40824005     0.32100
H170        H  0.49461958  0.51138696  0.72570014     0.36100
H171        H  0.04758013  0.00379230  0.70220321     0.28800
H172        H  0.42665952  0.05753006  0.39114511     0.33000
H173        H  0.50711058  0.53277119  0.34637405     0.35900
H174        H  0.08002722  0.14711295  0.61960626     0.28500
H175        H  0.50494221  0.45750294  0.70336688     0.41400
H176        H  0.32515927  0.37290914  0.57776561     0.31400
H177        H  0.38012502  0.46859575  0.66686265     0.39000
H178        H  0.08600452  0.06855310  0.39973688     0.30900
H179        H  0.37330867  0.38307901  0.44549867     0.31000
H180        H  0.43529045  0.02812307  0.37139044     0.31200
C181        C  0.22733746  0.39843645  0.40680982    -0.05100
C182        C  0.26058765  0.44238745  0.40881177    -0.02300
C183        C  0.30015131  0.45950365  0.42991113     0.02700
C184        C  0.30879020  0.43295076  0.44498614    -0.05100
C185        C  0.27686532  0.38908831  0.43593756    -0.02200
C186        C  0.23663566  0.37207724  0.41723245     0.02700
C187        C  0.25456467  0.47044376  0.38737464     0.37400
C188        C  0.28461517  0.36046281  0.44495064     0.37400
C189        C  0.20559948  0.32723607  0.40817002     0.35800
C190        C  0.33157505  0.00509453  0.42928175     0.35800
N191        N  0.18238516  0.29145924  0.40035834    -0.39000
N192        N  0.35556895  0.04105219  0.43569504    -0.39000
N193        N  0.28917067  0.33634582  0.45159082    -0.38500
N194        N  0.24973158  0.49275418  0.37033935    -0.38500
C195        C  0.06442078  0.42668288  0.48119699    -0.05100
C196        C  0.04342157  0.39458114  0.44214310    -0.02300
C197        C  0.06061626  0.37657703  0.42420276     0.02700
C198        C  0.10034920  0.39157909  0.44347652    -0.05100
C199        C  0.11685347  0.41811882  0.48985282    -0.02200
C200        C  0.09994102  0.43675694  0.50705324     0.02700
C201        C  0.00305872  0.37885650  0.42158125     0.37400
C202        C  0.14724597  0.42259022  0.52468137     0.37400
C203        C  0.11940255  0.46650370  0.55143850     0.35800
C204        C  0.03625877  0.34153028  0.38680632     0.35800
N205        N  0.13481492  0.48996764  0.58708379    -0.39000
N206        N  0.01672152  0.31351608  0.35725085    -0.39000
N207        N  0.17119986  0.42632098  0.55348944    -0.38500
N208        N  0.97079056  0.36609764  0.40538160    -0.38500
C209        C  0.09433471  0.27055597  0.41598084    -0.05100
C210        C  0.06348905  0.23578592  0.38410575    -0.02300
C211        C  0.04709660  0.19517912  0.39965717     0.02700
C212        C  0.05770307  0.18871741  0.45069367    -0.05100
C213        C  0.08430583  0.22332248  0.48565121    -0.02200
C214        C  0.10432371  0.26418892  0.46719088     0.02700
C215        C  0.04768242  0.24179200  0.33641056     0.37400
C216        C  0.08799116  0.21703091  0.54248423     0.37400
C217        C  0.13478305  0.29975935  0.50156971     0.35800
C218        C  0.01996210  0.16069666  0.36254070     0.35800
N219        N  0.15935588  0.32800326  0.52883436    -0.39000
N220        N  0.99860207  0.13381361  0.33195738    -0.39000
N221        N  0.09050881  0.21316436  0.58841496    -0.38500
N222        N  0.03520131  0.24684948  0.29850791    -0.38500
C223        C  0.10003817  0.27090834  0.16512308    -0.05100
C224        C  0.09389078  0.24024091  0.20016407    -0.02300
C225        C  0.07530391  0.19967960  0.18061548     0.02700
C226        C  0.06439086  0.18966491  0.12550790    -0.05100
C227        C  0.07404619  0.22094314  0.08943950    -0.02200
C228        C  0.09312011  0.26153481  0.10843449     0.02700
C229        C  0.11144474  0.25105118  0.25393263     0.37400
C230        C  0.06469169  0.21134494  0.03216811     0.37400
C231        C  0.11075777  0.29479833  0.06830660     0.35800
C232        C  0.06935169  0.16868432  0.21663671     0.35800
N233        N  0.12532214  0.32127388  0.03613297    -0.39000
N234        N  0.06486018  0.14400825  0.24509921    -0.39000
N235        N  0.55729367  0.20415248  0.98461582    -0.38500
N236        N  0.12674975  0.25836930  0.29608990    -0.38500
C237        C  0.22985968  0.39668906  0.17897453    -0.05100
C238        C  0.23734802  0.37152046  0.15511592    -0.02300
C239        C  0.27810187  0.38944323  0.13653594     0.02700
C240        C  0.31321455  0.43293370  0.14447058    -0.05100
C241        C  0.30602081  0.45665074  0.17499339    -0.02200
C242        C  0.26467626  0.43893989  0.19056609     0.02700
C243        C  0.20364730  0.32685432  0.14829693     0.37400
C244        C  0.33792180  0.99566052  0.19437052     0.37400
C245        C  0.25797519  0.46432578  0.21952491     0.35800
C246        C  0.28240612  0.36208878  0.10785302     0.35800
N247        N  0.25283754  0.48472971  0.24255397    -0.39000
N248        N  0.28486938  0.33963684  0.08502233    -0.39000
N249        N  0.36465537  0.02905422  0.21041946    -0.38500
N250        N  0.17980787  0.29097826  0.14164181    -0.38500
C251        C  0.07201717  0.43209998  0.10577812    -0.05100
C252        C  0.11565624  0.45537584  0.10212483    -0.02300
C253        C  0.13400294  0.43957365  0.12479109     0.02700
C254        C  0.10822619  0.39762858  0.14615233    -0.05100
C255        C  0.06410609  0.37545390  0.15169384    -0.02200
C256        C  0.04640720  0.39229784  0.13084424     0.02700
C257        C  0.14216936  0.49710582  0.07786164     0.37400
C258        C  0.03682605  0.33699721  0.18375060     0.37400
C259        C  0.49996888  0.36658340  0.12789648     0.35800
C260        C  0.17898420  0.46976531  0.13334729     0.35800
N261        N  0.46424340  0.34829376  0.13197302    -0.39000
N262        N  0.21486258  0.49510790  0.14011185    -0.39000
N263        N  0.01507822  0.30665866  0.20983857    -0.38500
N264        N  0.15974936  0.02628237  0.05034761    -0.38500
C265        C  0.36097575  0.12209377  0.63568029    -0.05100
C266        C  0.38898005  0.13905658  0.59001836    -0.02300
C267        C  0.40704368  0.12143216  0.57323362     0.02700
C268        C  0.39417352  0.08407610  0.59769213    -0.05100
C269        C  0.36066835  0.06299252  0.63586206    -0.02200
C270        C  0.34380718  0.08134633  0.65405655     0.02700
C271        C  0.39506881  0.17037685  0.55486402     0.37400
C272        C  0.34235875  0.02151429  0.65561097     0.37400
C273        C  0.30776111  0.05726449  0.69100396     0.35800
C274        C  0.43944583  0.14245791  0.53109898     0.35800
N275        N  0.27888606  0.03790596  0.72012143    -0.39000
N276        N  0.46520394  0.15946753  0.49743419    -0.39000
N277        N  0.32949619  0.48865125  0.67513313    -0.38500
N278        N  0.39993614  0.19492787  0.52566159    -0.38500
C279        C  0.37740372  0.25404490  0.67521858    -0.05100
C280        C  0.42176931  0.28639757  0.67208446    -0.02300
C281        C  0.44008914  0.32698670  0.65248989     0.02700
C282        C  0.41454297  0.33751676  0.64190411    -0.05100
C283        C  0.37105766  0.30704173  0.65459142    -0.02200
C284        C  0.35234153  0.26519273  0.66697149     0.02700
C285        C  0.44889248  0.27827139  0.68991165     0.37400
C286        C  0.34495134  0.31844074  0.65726236     0.37400
C287        C  0.30690598  0.23418816  0.66735566     0.35800
C288        C  0.48513309  0.35697286  0.64209111     0.35800
N289        N  0.27063308  0.21225859  0.66616158    -0.39000
N290        N  0.01729920  0.37851616  0.62571856    -0.39000
N291        N  0.32318012  0.32630021  0.66091961    -0.38500
N292        N  0.47044177  0.27176688  0.70432152    -0.38500
C293        C  0.16508052  0.09232102  0.62667679    -0.05100
C294        C  0.19697252  0.10472345  0.58919773    -0.02300
C295        C  0.23762831  0.12387122  0.60749375     0.02700
C296        C  0.24639095  0.12856728  0.66410287    -0.05100
C297        C  0.21575628  0.12125103  0.70058988    -0.02200
C298        C  0.17493863  0.10224253  0.68202146     0.02700
C299        C  0.18793748  0.09772421  0.53149755     0.37400
C300        C  0.22722322  0.13873424  0.75448745     0.37400
C301        C  0.14360249  0.09505880  0.71909627     0.35800
C302        C  0.27128233  0.14202128  0.56748124     0.35800
N303        N  0.11850246  0.08958734  0.74812114    -0.39000
N304        N  0.29816645  0.15675038  0.53566924    -0.39000
N305        N  0.23543215  0.15437682  0.79660211    -0.38500
N306        N  0.18079672  0.09212998  0.48551315    -0.38500
C307        C  0.37932264  0.13523053  0.93614807    -0.05100
C308        C  0.41648143  0.14651558  0.91161911    -0.02300
C309        C  0.43363922  0.12862312  0.93013396     0.02700
C310        C  0.41531280  0.10044739  0.97494399    -0.05700
C311        C  0.38294377  0.09487955  0.00484795    -0.02200
C312        C  0.36649290  0.11372863  0.98704156     0.02700
C313        C  0.43795420  0.17695180  0.86727716     0.37400
C314        C  0.36544831  0.06894406  0.05355853     0.37400
C315        C  0.33967257  0.11407369  0.02425877     0.35800
C316        C  0.47103961  0.14037470  0.90322411     0.35800
N317        N  0.31842582  0.11411118  0.05463497    -0.39000
N318        N  0.50086935  0.15034443  0.88109907    -0.39000
N319        N  0.35114719  0.04836718  0.09251136    -0.38500
N320        N  0.45486781  0.20039915  0.83113479    -0.38500
C321        C  0.41173324  0.33496879  0.94040778    -0.05100
C322        C  0.36786162  0.30287053  0.93202516    -0.02300
C323        C  0.35103966  0.26264508  0.91351785     0.02700
C324        C  0.37774023  0.25356704  0.90262835    -0.05100
C325        C  0.42182241  0.28703249  0.90533105    -0.02200
C326        C  0.43858420  0.32666947  0.92559404     0.02700
C327        C  0.33920370  0.31061419  0.94214408     0.37400
C328        C  0.45079217  0.28134493  0.88658314     0.37400
C329        C  0.48377435  0.35791206  0.93333768     0.35800
C330        C  0.30596755  0.23133489  0.90628571     0.35800
N331        N  0.02004657  0.37943471  0.95288208    -0.39000
N332        N  0.26992247  0.20814524  0.90027317    -0.39000
N333        N  0.47469289  0.27774476  0.87234004    -0.38500
N334        N  0.31554204  0.31572656  0.95008186    -0.38500
C335        C  0.24937132  0.12110513  0.91526425    -0.05100
C336        C  0.24294767  0.13181915  0.96607088    -0.02300
C337        C  0.20218303  0.11447365  0.98292062     0.02700
C338        C  0.16733307  0.08684107  0.94847358    -0.05100
C339        C  0.17398164  0.07522723  0.89817692    -0.02200
C340        C  0.21463238  0.09104616  0.88293001     0.02700
C341        C  0.27841970  0.16044347  0.00152166     0.37400
C342        C  0.13976719  0.04820276  0.86076333     0.37400
C343        C  0.22079934  0.07554707  0.83475732     0.35800
C344        C  0.19620555  0.12320305  0.03738616     0.35800
N345        N  0.22614655  0.06345204  0.79648109    -0.39000
N346        N  0.19208334  0.13002111  0.08127027    -0.39000
N347        N  0.11345200  0.02705502  0.82946322    -0.38500
N348        N  0.30665581  0.18327910  0.02975523    -0.38500
C349        C  0.35631443  0.64833132  0.90893116     0.86700
C350        C  0.37787134  0.69425154  0.92046600    -0.53600
C351        C  0.36125604  0.70944675  0.89450426     0.09600
C352        C  0.32306416  0.67583794  0.85893948     0.20600
C353        C  0.30985124  0.62360142  0.92324971    -0.54300
C354        C  0.29262240  0.63829317  0.89867002     0.09700
C355        C  0.35459865  0.64434988  0.84690948    -0.53800
C356        C  0.33914920  0.66017605  0.81937274     0.10300
H357        H  0.40364728  0.71278582  0.94884436     0.14800
H358        H  0.30907213  0.68724543  0.83776246     0.00500
H359        H  0.29090172  0.59592517  0.94908551     0.15100
H360        H  0.36329235  0.62778769  0.82779342     0.14900
C361        C  0.34894268  0.64466922  0.66644279     0.86700
C362        C  0.30235348  0.62143826  0.65829972    -0.53600
C363        C  0.28716738  0.63830799  0.68356473     0.09600
C364        C  0.32047628  0.67590750  0.72065413     0.20600
C365        C  0.37175589  0.69108726  0.65292375    -0.54300
C366        C  0.35722175  0.70778498  0.68092101     0.09700
C367        C  0.35411480  0.64589543  0.72778641    -0.53800
C368        C  0.33791376  0.66011931  0.75774482     0.10300
H369        H  0.28330108  0.59463382  0.63144778     0.14800
H370        H  0.30941203  0.68984908  0.74335026     0.00500
H371        H  0.39851947  0.71056252  0.62582973     0.15100
H372        H  0.37048624  0.63635063  0.74470567     0.14900
C373        C  0.12413456  0.87667168  0.16915126     0.86700
C374        C  0.16952882  0.89543058  0.15486122    -0.53600
C375        C  0.18337294  0.87854135  0.18342737     0.09600
C376        C  0.14972172  0.84243809  0.22200545     0.20600
C377        C  0.09851054  0.82977489  0.15812337    -0.54300
C378        C  0.11217413  0.81142500  0.18333558     0.09700
C379        C  0.12326807  0.87948745  0.23041291    -0.53800
C380        C  0.13568638  0.86155685  0.25961330     0.10300
H381        H  0.18866182  0.91760322  0.12225466     0.14800
H382        H  0.16200623  0.82946338  0.24380972     0.00500
H383        H  0.07288129  0.81300335  0.12937444     0.15100
H384        H  0.11260031  0.89475500  0.24791510     0.14900
C385        C  0.12264389  0.87790620  0.41188005     0.86700
C386        C  0.09783800  0.83181137  0.42555561    -0.53600
C387        C  0.11091203  0.81373797  0.39912400     0.09600
C388        C  0.14862688  0.84370520  0.35955028     0.20600
C389        C  0.16889293  0.89885849  0.42236360    -0.54300
C390        C  0.18292363  0.88131488  0.39522153     0.09700
C391        C  0.12227931  0.88035989  0.34971448    -0.53800
C392        C  0.13485906  0.86190249  0.32119035     0.10300
H393        H  0.07275652  0.81502524  0.45601006     0.14800
H394        H  0.15925840  0.82910852  0.33766549     0.00500
H395        H  0.19023227  0.92653897  0.44638958     0.15100
H396        H  0.11298015  0.89657042  0.33139631     0.14900
Zr397      Zr  0.01936643  0.98071833  0.98624110     2.17500
O398        O  0.02759693  0.96346848  0.89567744    -0.51100
O399        O  0.04652080  0.95261230  0.03598597    -0.74300
O400        O  0.09404876  0.52946786  0.96151885    -0.81100
O401        O  0.40686957  0.87844549  0.99759091    -0.82900
O402        O  0.12147220  0.59396824  0.99168146    -0.78500
O403        O  0.46912002  0.90927925  0.95491663    -0.90100
O404        O  0.04220618  0.96204146  0.12596757    -0.76100
O405        O  0.05659268  0.53006067  0.06102663    -0.85600
O406        O  0.47641630  0.94701044  0.06428097    -0.85300
O407        O  0.03062908  0.54175803  0.95907732    -0.72000
O408        O  0.45510501  0.96568570  0.96542368    -0.84200
Zr409      Zr  0.45931750  0.54240758  0.09082840     2.26400
Zr410      Zr  0.06567800  0.59004442  0.03268573     2.06300
Zr411      Zr  0.41238590  0.93279857  0.04555131     2.10000
Zr412      Zr  0.01342730  0.99671364  0.13646588     1.78800
O413        O  0.35155949  0.89945708  0.98752393    -0.93000
O414        O  0.07820480  0.54024055  0.18847476    -0.40800
O415        O  0.44820038  0.98074539  0.11925447    -0.77400
O416        O  0.02275968  0.55749363  0.11294763    -0.96100
O417        O  0.50326040  0.57626798  0.01215385    -0.89400
O418        O  0.42262982  0.49412903  0.01803582    -0.92200
C419        C  0.05137035  0.94915687  0.08650748     1.01500
C420        C  0.43067050  0.87709335  0.96612116     1.14400
C421        C  0.12487688  0.56884043  0.96831629     1.05200
O422        O  0.12750884  0.63634079  0.08884857    -0.94400
O423        O  0.06960441  0.64483545  0.07605369    -0.90100
O424        O  0.00601545  0.61560070  0.11477427    -0.83300
C425        C  0.04480294  0.64682894  0.10392242     1.11900
O426        O  0.47194551  0.50944990  0.84846087    -0.96400
Zr427      Zr  0.46672634  0.52809653  0.93977866     1.88900
O428        O  0.43455271  0.57269564  0.04017123    -0.73000
O429        O  0.09595140  0.64147258  0.95906537    -0.52300
O430        O  0.01416737  0.58699228  0.88230185    -0.97000
O431        O  0.39841420  0.98377058  0.89348110    -0.54200
O432        O  0.44005470  0.56456678  0.95030408    -0.73500
C433        C  0.43094442  0.57761331  0.98959554     0.98800
O434        O  0.45000214  0.55521375  0.18403963    -0.62400
O435        O  0.37749915  0.87263298  0.10702278    -0.57200
O436        O  0.38288076  0.99143684  0.11905640    -0.93800
O437        O  0.36070326  0.92689571  0.10207270    -0.92300
O438        O  0.46756120  0.93426013  0.19539470    -0.92600
O439        O  0.50686239  0.50847679  0.22834750    -0.91400
C440        C  0.35454056  0.95105361  0.12104956     1.17700
H441        H  0.47075127  0.92116080  0.07195117     0.33600
H442        H  0.03613429  0.57707263  0.14269327     0.44400
H443        H  0.39433438  0.98555626  0.01327840     0.38000
H444        H  0.04828196  0.55352825  0.92682095     0.34500
H445        H  0.09993663  0.54792289  0.16146216     0.26200
H446        H  0.08570562  0.65675762  0.96581542     0.32200
H447        H  0.53311030  0.61295859  0.90798431     0.38100
H448        H  0.46367281  0.91133730  0.17592471     0.32500
H449        H  0.35676293  0.84786480  0.08435190     0.31400
H450        H  0.36348931  0.90802944  0.95018394     0.33100
H451        H  0.40533049  0.50594701  0.86146564     0.32100
H452        H  0.97326942  0.50003571  0.23137221     0.36100
H453        H  0.43325386  0.52754974  0.20257714     0.28800
H454        H  0.05131899  0.96368147  0.89818266     0.33000
H455        H  0.46303620  0.48115114  0.85235824     0.35900
H456        H  0.39903196  0.87031550  0.11514044     0.28500
H457        H  0.47806196  0.57163711  0.20078877     0.41400
H458        H  0.12121825  0.61943987  0.12174597     0.31400
H459        H  0.08379474  0.56675005  0.19505001     0.39000
H460        H  0.37788249  0.97993210  0.91932368     0.30900
H461        H  0.12639139  0.66215760  0.96699296     0.31000
H462        H  0.03822664  0.98820535  0.87301415     0.31200
Zr463      Zr  0.45550299  0.54115430  0.48646538     2.17500
O464        O  0.44522551  0.55327946  0.39388294    -0.51100
O465        O  0.42397991  0.56486778  0.53635448    -0.74300
O466        O  0.38257684  0.99097672  0.45475570    -0.81100
O467        O  0.06669156  0.64531735  0.49999453    -0.82900
O468        O  0.35451364  0.92679336  0.48667694    -0.78500
O469        O  0.00320782  0.61595330  0.46350027    -0.90100
O470        O  0.42893311  0.55692023  0.62645902    -0.76100
O471        O  0.42071925  0.49524646  0.56282984    -0.85600
O472        O  0.50142184  0.57740032  0.56139402    -0.85300
O473        O  0.44571778  0.98089523  0.45828792    -0.72000
O474        O  0.02125600  0.55839879  0.46575082    -0.84200
Zr475      Zr  0.01802954  0.98329126  0.59257071     2.26400
Zr476      Zr  0.40968311  0.93295290  0.53352294     2.06300
Zr477      Zr  0.06265061  0.59106732  0.54549259     2.10000
Zr478      Zr  0.46663251  0.53125934  0.63723952     1.78800
O479        O  0.12523281  0.63595206  0.48789029    -0.93000
O480        O  0.39494418  0.97519991  0.68677824    -0.40800
O481        O  0.02634959  0.54287818  0.62016126    -0.77400
O482        O  0.45164527  0.96583104  0.61294743    -0.96100
O483        O  0.47457841  0.94883353  0.51308813    -0.89400
O484        O  0.05470477  0.53131576  0.52061827    -0.92200
C485        C  0.41764124  0.56745356  0.58674588     1.01500
C486        C  0.04191917  0.64761997  0.47330023     1.14400
C487        C  0.35160602  0.95147927  0.46074054     1.05200
O488        O  0.34757193  0.89579518  0.59195402    -0.94400
O489        O  0.40552446  0.87890553  0.58091652    -0.90100
O490        O  0.46870633  0.90869487  0.61811068    -0.83300
C491        C  0.42991587  0.87687096  0.60930249     1.11900
O492        O  0.49245503  0.50247203  0.34916607    -0.96400
Zr493      Zr  0.00791408  0.99351499  0.44085103     1.88900
O494        O  0.04416373  0.95382721  0.54350027    -0.73000
O495        O  0.38192333  0.87598079  0.47018760    -0.52300
O496        O  0.47057921  0.93791426  0.37958117    -0.97000
O497        O  0.08310873  0.54442496  0.40095345    -0.54200
O498        O  0.03730839  0.95980786  0.45334114    -0.73500
C499        C  0.04783187  0.94860862  0.49309723     0.98800
O500        O  0.03318423  0.97608120  0.68531958    -0.62400
O501        O  0.09034576  0.63978858  0.62073814    -0.57200
O502        O  0.09148015  0.53263628  0.61889925    -0.93800
O503        O  0.11868301  0.59734564  0.58784213    -0.92300
O504        O  0.00278117  0.59106873  0.68993052    -0.92600
O505        O  0.48248550  0.52512033  0.72960439    -0.91400
C506        C  0.12176905  0.57224641  0.61178510     1.17700
H507        H  0.00253742  0.60085121  0.57300898     0.33600
H508        H  0.43810950  0.94649829  0.64339111     0.44400
H509        H  0.08167332  0.53877820  0.51443781     0.38000
H510        H  0.42861655  0.96858175  0.42617295     0.34500
H511        H  0.40127466  0.50031245  0.71524163     0.26200
H512        H  0.35539718  0.85122281  0.48732175     0.32200
H513        H  0.44668871  0.91484963  0.40227039     0.38100
H514        H  0.50404413  0.61436156  0.67056330     0.32500
H515        H  0.11781776  0.66571395  0.60729553     0.31400
H516        H  0.14523358  0.66176243  0.50931140     0.33100
H517        H  0.09956264  0.53865246  0.42018508     0.32100
H518        H  0.49748146  0.02246452  0.72907482     0.36100
H519        H  0.04376614  0.50176051  0.70480429     0.28800
H520        H  0.42350182  0.55601038  0.39649892     0.33000
H521        H  0.47986325  0.00179390  0.34032705     0.35900
H522        H  0.07197189  0.64683025  0.62325183     0.28500
H523        H  0.49957475  0.95527488  0.70262197     0.41400
H524        H  0.32376560  0.87460616  0.56829377     0.31400
H525        H  0.37251158  0.96245188  0.65942757     0.39000
H526        H  0.09547029  0.57293854  0.41269371     0.30900
H527        H  0.37327226  0.88286795  0.43807517     0.31000
H528        H  0.43151688  0.52654756  0.37458688     0.31200
C529        C  0.22760970  0.89869869  0.40076484    -0.05100
C530        C  0.26111370  0.94268445  0.40122517    -0.02300
C531        C  0.30093211  0.95995319  0.42154616     0.02700
C532        C  0.30965902  0.93347119  0.43659921    -0.05100
C533        C  0.27753174  0.88952628  0.42829617    -0.02200
C534        C  0.23689581  0.87235768  0.41132936     0.02700
C535        C  0.25491629  0.97063490  0.37993596     0.37400
C536        C  0.28522581  0.86083022  0.43701979     0.37400
C537        C  0.20520485  0.82723290  0.40525456     0.35800
C538        C  0.33079795  0.50463582  0.43763785     0.35800
N539        N  0.18158864  0.79115049  0.40014606    -0.39000
N540        N  0.35463886  0.54064703  0.44357547    -0.39000
N541        N  0.28957973  0.83655316  0.44351721    -0.38500
N542        N  0.25000669  0.99297285  0.36327899    -0.38500
C543        C  0.06484684  0.92764114  0.47880096    -0.05100
C544        C  0.04344201  0.89466143  0.44104616    -0.02300
C545        C  0.06153129  0.87786309  0.42179745     0.02700
C546        C  0.10194094  0.89389333  0.43988897    -0.05100
C547        C  0.11957221  0.92208903  0.48463740    -0.02200
C548        C  0.10224358  0.94029558  0.50191016     0.02700
C549        C  0.00178296  0.87680216  0.42304750     0.37400
C550        C  0.15193271  0.92912426  0.51799174     0.37400
C551        C  0.12344595  0.97253270  0.54327942     0.35800
C552        C  0.03749499  0.84326156  0.38366617     0.35800
N553        N  0.14056134  0.99812776  0.57635509    -0.39000
N554        N  0.01832206  0.81587528  0.35315069    -0.39000
N555        N  0.17742966  0.93499943  0.54585923    -0.38500
N556        N  0.96845186  0.86210328  0.40882304    -0.38500
C557        C  0.09390341  0.77130270  0.41645506    -0.05100
C558        C  0.06147828  0.73553167  0.38735987    -0.02300
C559        C  0.04598528  0.69536694  0.40388124     0.02700
C560        C  0.05920946  0.69012607  0.45367089    -0.05100
C561        C  0.08844860  0.72614560  0.48578448    -0.02200
C562        C  0.10622750  0.76640261  0.46670159     0.02700
C563        C  0.04272705  0.73998600  0.34187741     0.37400
C564        C  0.09908732  0.72250150  0.54002665     0.37400
C565        C  0.13651827  0.80300414  0.49979926     0.35800
C566        C  0.01787197  0.66033352  0.36790078     0.35800
N567        N  0.16059360  0.83218164  0.52607578    -0.39000
N568        N  0.99601941  0.63341401  0.33756475    -0.39000
N569        N  0.10831665  0.72138861  0.58371540    -0.38500
N570        N  0.02750789  0.74362461  0.30610749    -0.38500
C571        C  0.09726230  0.76939126  0.16370322    -0.05100
C572        C  0.09110995  0.73896917  0.19914113    -0.02300
C573        C  0.07308051  0.69860403  0.17980448     0.02700
C574        C  0.06229766  0.68850033  0.12471594    -0.05100
C575        C  0.07084180  0.71919480  0.08853842    -0.02200
C576        C  0.08995170  0.75979391  0.10712521     0.02700
C577        C  0.10743449  0.74963485  0.25357742     0.37400
C578        C  0.05973851  0.70889443  0.03177775     0.37400
C579        C  0.10701594  0.79276845  0.06666458     0.35800
C580        C  0.06691040  0.66771285  0.21630930     0.35800
N581        N  0.12107305  0.81907658  0.03436619    -0.39000
N582        N  0.06216666  0.64318998  0.24539775    -0.39000
N583        N  0.55172906  0.70036626  0.98502868    -0.38500
N584        N  0.12184043  0.75678277  0.29632374    -0.38500
C585        C  0.22723046  0.89434876  0.17572330    -0.05100
C586        C  0.23489703  0.86940724  0.15158170    -0.02300
C587        C  0.27606706  0.88729795  0.13496846     0.02700
C588        C  0.31116794  0.93054062  0.14457769    -0.05100
C589        C  0.30350388  0.95381790  0.17526368    -0.02200
C590        C  0.26190346  0.93613938  0.18923311     0.02700
C591        C  0.20093971  0.82504324  0.14270411     0.37400
C592        C  0.34062246  0.49920843  0.19181274     0.37400
C593        C  0.25454572  0.96094603  0.21835771     0.35800
C594        C  0.28094010  0.86019932  0.10685505     0.35800
N595        N  0.24820315  0.98041865  0.24132952    -0.39000
N596        N  0.28382434  0.83785526  0.08462239    -0.39000
N597        N  0.36746665  0.53325941  0.20576358    -0.38500
N598        N  0.17662545  0.78936712  0.13465553    -0.38500
C599        C  0.06918214  0.92922682  0.10124265    -0.05100
C600        C  0.11275489  0.95239804  0.09696473    -0.02300
C601        C  0.13131065  0.93704007  0.12021946     0.02700
C602        C  0.10571792  0.89558415  0.14303268    -0.05100
C603        C  0.06162666  0.87344025  0.14905221    -0.02200
C604        C  0.04369475  0.88976546  0.12723781     0.02700
C605        C  0.13896322  0.99357493  0.07113796     0.37400
C606        C  0.03463959  0.83551823  0.18221766     0.37400
C607        C  0.49982505  0.86562166  0.12518353     0.35800
C608        C  0.17642701  0.96727397  0.12759751     0.35800
N609        N  0.46380755  0.84618442  0.12720258    -0.39000
N610        N  0.21243460  0.99256797  0.13335415    -0.39000
N611        N  0.01323679  0.80554518  0.20903945    -0.38500
N612        N  0.16341591  0.53032451  0.05847503    -0.38500
C613        C  0.36244820  0.62183841  0.63765942    -0.05100
C614        C  0.38940235  0.63790083  0.59100549    -0.02300
C615        C  0.40817071  0.62086325  0.57509519     0.02700
C616        C  0.39615560  0.58419276  0.60057117    -0.05100
C617        C  0.36323865  0.56342181  0.63951770    -0.02200
C618        C  0.34672857  0.58200709  0.65821110     0.02700
C619        C  0.39361362  0.66743655  0.55421900     0.37400
C620        C  0.34499757  0.52195549  0.65929735     0.37400
C621        C  0.31304458  0.55936439  0.69872629     0.35800
C622        C  0.44061145  0.64185629  0.53301234     0.35800
N623        N  0.28643729  0.54138499  0.73125952    -0.39000
N624        N  0.46657498  0.65866575  0.49961593    -0.39000
N625        N  0.32711537  0.98830751  0.67153577    -0.38500
N626        N  0.39684957  0.69042265  0.52363616    -0.38500
C627        C  0.37582767  0.75258561  0.67148123    -0.05100
C628        C  0.42005572  0.78534863  0.66836020    -0.02300
C629        C  0.43788520  0.82531803  0.64692416     0.02700
C630        C  0.41188663  0.83489428  0.63368633    -0.05100
C631        C  0.36806104  0.80365968  0.64437201    -0.02200
C632        C  0.35012591  0.76263883  0.66079030     0.02700
C633        C  0.44754251  0.77841868  0.68893412     0.37400
C634        C  0.34047963  0.81317813  0.64012165     0.37400
C635        C  0.30475805  0.73136964  0.66481700     0.35800
C636        C  0.48298014  0.85556293  0.63694716     0.35800
N637        N  0.26846810  0.70924245  0.66703740    -0.39000
N638        N  0.01915493  0.88262285  0.64681260    -0.39000
N639        N  0.31713739  0.81910223  0.63784005    -0.38500
N640        N  0.46940435  0.77298070  0.70578113    -0.38500
C641        C  0.16398614  0.59031938  0.63064037    -0.05100
C642        C  0.19399211  0.59869404  0.59279625    -0.02300
C643        C  0.23502149  0.61790468  0.60961500     0.02700
C644        C  0.24560412  0.62536004  0.66578668    -0.05100
C645        C  0.21609930  0.61993060  0.70274239    -0.02200
C646        C  0.17545714  0.60229074  0.68512518     0.02700
C647        C  0.18239836  0.58708216  0.53630170     0.37400
C648        C  0.22831586  0.63719993  0.75665845     0.37400
C649        C  0.14574340  0.59792387  0.72247973     0.35800
C650        C  0.26713459  0.63336841  0.56809120     0.35800
N651        N  0.12200761  0.59468282  0.75184614    -0.39000
N652        N  0.29277030  0.64597067  0.53499253    -0.39000
N653        N  0.23677642  0.65249514  0.79901076    -0.38500
N654        N  0.17284778  0.57732065  0.49147588    -0.38500
C655        C  0.37941025  0.63492640  0.93618881    -0.05100
C656        C  0.41673596  0.64648570  0.91184599    -0.02300
C657        C  0.43398261  0.62868900  0.93025271     0.02700
C658        C  0.41545147  0.60009515  0.97457112    -0.05700
C659        C  0.38223165  0.59337166  0.00368671    -0.02200
C660        C  0.36598427  0.61253193  0.98645360     0.02700
C661        C  0.43819957  0.67690983  0.86748651     0.37400
C662        C  0.36314751  0.56524217  0.05026068     0.37400
C663        C  0.33891917  0.61242277  0.02377761     0.35800
C664        C  0.47142707  0.64068169  0.90321022     0.35800
N665        N  0.31756871  0.61229541  0.05416837    -0.39000
N666        N  0.50126191  0.65109800  0.88057813    -0.39000
N667        N  0.34736587  0.54253823  0.08716169    -0.38500
N668        N  0.45511186  0.70020297  0.83119395    -0.38500
C669        C  0.41285473  0.83539944  0.94179499    -0.05100
C670        C  0.36899511  0.80349130  0.93293147    -0.02300
C671        C  0.35204180  0.76324872  0.91427552     0.02700
C672        C  0.37855288  0.75391488  0.90370009    -0.05100
C673        C  0.42264564  0.78723222  0.90672630    -0.02200
C674        C  0.43954364  0.82682153  0.92748329     0.02700
C675        C  0.34043826  0.81139582  0.94278163     0.37400
C676        C  0.45137695  0.78156475  0.88681245     0.37400
C677        C  0.48459934  0.85767520  0.93639981     0.35800
C678        C  0.30706004  0.73225456  0.90613559     0.35800
N679        N  0.01945177  0.88071246  0.94499632    -0.39000
N680        N  0.27110643  0.70925173  0.89935449    -0.39000
N681        N  0.47487651  0.77781553  0.87107798    -0.38500
N682        N  0.31679163  0.81655032  0.95053861    -0.38500
C683        C  0.24975484  0.62109160  0.91497911    -0.05100
C684        C  0.24380799  0.63287280  0.96517578    -0.02300
C685        C  0.20312788  0.61530578  0.98278598     0.02700
C686        C  0.16779518  0.58650833  0.94954837    -0.05100
C687        C  0.17400180  0.57392405  0.89976761    -0.02200
C688        C  0.21456512  0.58957556  0.88424417     0.02700
C689        C  0.27971343  0.66271106  0.99943551     0.37400
C690        C  0.13957762  0.54651958  0.86273131     0.37400
C691        C  0.22015055  0.57259612  0.83730486     0.35800
C692        C  0.19794590  0.62529747  0.03682335     0.35800
N693        N  0.22481334  0.55913919  0.80002072    -0.39000
N694        N  0.19477975  0.63334842  0.08041455    -0.39000
N695        N  0.11325205  0.52528461  0.83146484    -0.38500
N696        N  0.30827919  0.68658421  0.02668819    -0.38500
C697        C  0.85684957  0.14962348  0.90759479     0.86700
C698        C  0.87845148  0.19555862  0.91887075    -0.53600
C699        C  0.86192228  0.21075252  0.89260445     0.09600
C700        C  0.82366784  0.17709375  0.85715942     0.20600
C701        C  0.81025665  0.12501293  0.92167778    -0.54300
C702        C  0.79315038  0.13981301  0.89696876     0.09700
C703        C  0.85553119  0.14581707  0.84550095    -0.53800
C704        C  0.83959739  0.16116883  0.81787037     0.10300
H705        H  0.90423806  0.21414306  0.94722845     0.14800
H706        H  0.80960392  0.18834389  0.83577157     0.00500
H707        H  0.79115677  0.09736045  0.94752155     0.15100
H708        H  0.86507162  0.13000730  0.82635228     0.14900
C709        C  0.84748434  0.14465253  0.66467338     0.86700
C710        C  0.80078556  0.12128465  0.65751061    -0.53600
C711        C  0.78586118  0.13831952  0.68307325     0.09600
C712        C  0.81942452  0.17590198  0.71993413     0.20600
C713        C  0.87000678  0.19107562  0.65123437    -0.54300
C714        C  0.85564374  0.20773465  0.67988720     0.09700
C715        C  0.85317140  0.14588947  0.72594196    -0.53800
C716        C  0.83744857  0.16040448  0.75635029     0.10300
H717        H  0.78152523  0.09446263  0.63072808     0.14800
H718        H  0.80853155  0.18978820  0.74311303     0.00500
H719        H  0.89659752  0.21060858  0.62391614     0.15100
H720        H  0.86936164  0.13604451  0.74253741     0.14900
C721        C  0.62507641  0.37682570  0.16734239     0.86700
C722        C  0.67043054  0.39550096  0.15313738    -0.53600
C723        C  0.68464350  0.37939947  0.18261142     0.09600
C724        C  0.65117683  0.34338073  0.22127571     0.20600
C725        C  0.59957816  0.32982909  0.15729705    -0.54300
C726        C  0.61356835  0.31192243  0.18296512     0.09700
C727        C  0.62432254  0.38013065  0.22876196    -0.53800
C728        C  0.63718270  0.36264246  0.25833301     0.10300
H729        H  0.68925844  0.41671424  0.11966591     0.14800
H730        H  0.66350295  0.33054803  0.24338776     0.00500
H731        H  0.57397560  0.31267000  0.12851760     0.15100
H732        H  0.61340892  0.39522730  0.24612468     0.14900
C733        C  0.62467085  0.37887126  0.41069606     0.86700
C734        C  0.59945219  0.33257399  0.42377287    -0.53600
C735        C  0.61250407  0.31451977  0.39721408     0.09600
C736        C  0.65030103  0.34451596  0.35797046     0.20600
C737        C  0.67066861  0.39921672  0.42172881    -0.54300
C738        C  0.68449001  0.38151463  0.39432608     0.09700
C739        C  0.62485903  0.38206152  0.34854205    -0.53800
C740        C  0.63697111  0.36332323  0.31986709     0.10300
H741        H  0.57425304  0.31570116  0.45405783     0.14800
H742        H  0.66071421  0.32978858  0.33592422     0.00500
H743        H  0.69194982  0.42655161  0.44640346     0.15100
H744        H  0.61610923  0.39876724  0.33017536     0.14900
Zr745      Zr  0.51967570  0.48081435  0.98352568     2.17500
O746        O  0.52697415  0.46546474  0.89111751    -0.51100
O747        O  0.54728062  0.45237422  0.03110423    -0.74300
O748        O  0.59443949  0.03135237  0.95922248    -0.81100
O749        O  0.90633756  0.37851443  0.99704748    -0.82900
O750        O  0.62142769  0.09598063  0.98841513    -0.78500
O751        O  0.97020249  0.40853274  0.96031028    -0.90100
O752        O  0.54338258  0.46153444  0.12131926    -0.76100
O753        O  0.55686366  0.02980631  0.05805369    -0.85600
O754        O  0.97609693  0.44710225  0.06753235    -0.85300
O755        O  0.53064743  0.04292054  0.95827747    -0.72000
O756        O  0.95546647  0.46514479  0.96713102    -0.84200
Zr757      Zr  0.95819882  0.04251574  0.09125320     2.26400
Zr758      Zr  0.56555366  0.09012427  0.03323567     2.06300
Zr759      Zr  0.91222165  0.43251289  0.04666542     2.10000
Zr760      Zr  0.51327523  0.49474482  0.13458231     1.78800
O761        O  0.85056874  0.40032136  0.99062957    -0.93000
O762        O  0.58201240  0.04224919  0.17839219    -0.40800
O763        O  0.94744768  0.48069759  0.12011822    -0.77400
O764        O  0.52221784  0.05669791  0.11302331    -0.96100
O765        O  0.00075206  0.07517259  0.01123377    -0.89400
O766        O  0.92082587  0.99285220  0.01999506    -0.92200
C767        C  0.55260565  0.44899385  0.08145469     1.01500
C768        C  0.93107497  0.37691920  0.96827425     1.14400
C769        C  0.62506381  0.07092080  0.96536257     1.05200
O770        O  0.62156146  0.12737141  0.09970010    -0.94400
O771        O  0.56887542  0.14493424  0.07457657    -0.90100
O772        O  0.50603599  0.11543851  0.11582270    -0.83300
C773        C  0.54451329  0.14688179  0.10353130     1.11900
O774        O  0.96536224  0.00327064  0.84983976    -0.96400
Zr775      Zr  0.96339892  0.02524888  0.94048261     1.88900
O776        O  0.93331422  0.07250355  0.04021967    -0.73000
O777        O  0.60337906  0.14861246  0.96868017    -0.52300
O778        O  0.51238742  0.08684163  0.88002824    -0.97000
O779        O  0.89923689  0.48618053  0.89234231    -0.54200
O780        O  0.93715536  0.06245528  0.95048249    -0.73500
C781        C  0.92901774  0.07659920  0.98960640     0.98800
O782        O  0.94867883  0.05515167  0.18444556    -0.62400
O783        O  0.87751777  0.37117910  0.10597080    -0.57200
O784        O  0.88365792  0.49251865  0.11843433    -0.93800
O785        O  0.86182834  0.42786675  0.10405903    -0.92300
O786        O  0.96703016  0.43277985  0.19483836    -0.92600
O787        O  0.00878125  0.01305160  0.22949806    -0.91400
C788        C  0.85563172  0.45224890  0.12178117     1.17700
H789        H  0.97060329  0.42143473  0.07599851     0.33600
H790        H  0.53547353  0.07593377  0.14313759     0.44400
H791        H  0.89462992  0.48534235  0.01328403     0.38000
H792        H  0.54835795  0.05527045  0.92611773     0.34500
H793        H  0.60172037  0.04611843  0.15089081     0.26200
H794        H  0.58851893  0.15968504  0.96986795     0.32200
H795        H  0.02972251  0.08745168  0.86758351     0.38100
H796        H  0.98663119  0.43279785  0.21710122     0.32500
H797        H  0.85670616  0.34683491  0.08275689     0.31400
H798        H  0.86208517  0.41058391  0.95335109     0.33100
H799        H  0.89593038  0.99193392  0.86671407     0.32100
H800        H  0.49987447  0.02578385  0.22967718     0.36100
H801        H  0.93241599  0.02757924  0.20311081     0.28800
H802        H  0.54994144  0.46447689  0.89233113     0.33000
H803        H  0.98315196  0.99559236  0.85342295     0.35900
H804        H  0.89904294  0.36867315  0.11306159     0.28500
H805        H  0.97682806  0.07204883  0.20106002     0.41400
H806        H  0.63957943  0.15734918  0.08903745     0.31400
H807        H  0.58922104  0.06986055  0.17998781     0.39000
H808        H  0.87840480  0.48110964  0.91885433     0.30900
H809        H  0.63073555  0.17065239  0.98605566     0.31000
H810        H  0.53847182  0.49110242  0.86995989     0.31200
Zr811      Zr  0.95507771  0.04114047  0.48508239     2.17500
O812        O  0.94752115  0.05489553  0.39195162    -0.51100
O813        O  0.92358675  0.06574135  0.53291764    -0.74300
O814        O  0.88315080  0.49060400  0.45664916    -0.81100
O815        O  0.56674765  0.14487769  0.49592797    -0.82900
O816        O  0.85538167  0.42609699  0.48662300    -0.78500
O817        O  0.50298756  0.11632089  0.46120970    -0.90100
O818        O  0.92789196  0.05776657  0.62315603    -0.76100
O819        O  0.91933713  0.99574560  0.56179608    -0.85600
O820        O  0.00057940  0.07755131  0.56040649    -0.85300
O821        O  0.94697839  0.48134301  0.45950181    -0.72000
O822        O  0.52057277  0.05844087  0.46405336    -0.84200
Zr823      Zr  0.51945337  0.48350962  0.59140425     2.26400
Zr824      Zr  0.91065536  0.43303417  0.53415089     2.06300
Zr825      Zr  0.56178465  0.09092293  0.54389892     2.10000
Zr826      Zr  0.96534512  0.03198479  0.63637384     1.78800
O827        O  0.62741631  0.14051926  0.49321449    -0.93000
O828        O  0.89574809  0.47580876  0.68898866    -0.40800
O829        O  0.52579491  0.04262092  0.61828928    -0.77400
O830        O  0.95172058  0.46572478  0.61473869    -0.96100
O831        O  0.97566399  0.44888719  0.51520660    -0.89400
O832        O  0.55418050  0.03145695  0.51783649    -0.92200
C833        C  0.91693222  0.06842419  0.58312560     1.01500
C834        C  0.54206164  0.14763746  0.46997337     1.14400
C835        C  0.85238773  0.45096025  0.46148760     1.05200
O836        O  0.84381273  0.38947112  0.58315525    -0.94400
O837        O  0.90490536  0.37906365  0.58392437    -0.90100
O838        O  0.96791533  0.40916969  0.62215432    -0.83300
C839        C  0.92917098  0.37737465  0.61311334     1.11900
O840        O  0.99573325  0.00527273  0.34928754    -0.96400
Zr841      Zr  0.50772660  0.49297998  0.44015959     1.88900
O842        O  0.54685680  0.45543356  0.54208990    -0.73000
O843        O  0.88930441  0.38017748  0.46661406    -0.52300
O844        O  0.97097336  0.43750150  0.38260415    -0.97000
O845        O  0.57960206  0.04491305  0.39337959    -0.54200
O846        O  0.53834662  0.46021364  0.45218009    -0.73500
C847        C  0.54987311  0.44975437  0.49165960     0.98800
O848        O  0.53262537  0.47469553  0.68451265    -0.62400
O849        O  0.58335733  0.13596796  0.62224792    -0.57200
O850        O  0.59093705  0.03285256  0.61723054    -0.93800
O851        O  0.61788511  0.09735579  0.58572617    -0.92300
O852        O  0.49957509  0.08978059  0.69032086    -0.92600
O853        O  0.98079639  0.03042582  0.73103688    -0.91400
C854        C  0.62107240  0.07247911  0.61002695     1.17700
H855        H  0.50175009  0.10072109  0.57106926     0.33600
H856        H  0.93790042  0.44641914  0.64517889     0.44400
H857        H  0.58118914  0.03909208  0.51114032     0.38000
H858        H  0.93008202  0.46940712  0.42720059     0.34500
H859        H  0.90139979  0.00185283  0.71637068     0.26200
H860        H  0.86292904  0.35377763  0.48148340     0.32200
H861        H  0.94836665  0.43683463  0.36900719     0.38100
H862        H  0.00434411  0.11673244  0.66364294     0.32500
H863        H  0.61270781  0.16141559  0.61392372     0.31400
H864        H  0.64505936  0.16543842  0.51685990     0.33100
H865        H  0.59661343  0.03842629  0.40866930     0.32100
H866        H  0.99745791  0.52435199  0.73301938     0.36100
H867        H  0.54421211  0.99958019  0.70206602     0.28800
H868        H  0.92532908  0.05701967  0.39335613     0.33000
H869        H  0.02466302  0.51064610  0.32759325     0.35900
H870        H  0.56685905  0.14519780  0.62045987     0.28500
H871        H  0.00359131  0.45440229  0.70497167     0.41400
H872        H  0.83845441  0.40857809  0.59254544     0.31400
H873        H  0.87325614  0.46325412  0.66178793     0.39000
H874        H  0.59275984  0.07312713  0.40748710     0.30900
H875        H  0.88052849  0.38718953  0.43479104     0.31000
H876        H  0.93489172  0.02865781  0.37199394     0.31200
C877        C  0.72897898  0.39846265  0.40002290    -0.05100
C878        C  0.76232385  0.44234699  0.40118651    -0.02300
C879        C  0.80170717  0.45948245  0.42273742     0.02700
C880        C  0.81061959  0.43301950  0.43691586    -0.05100
C881        C  0.77898929  0.38923198  0.42682711    -0.02200
C882        C  0.73835749  0.37206916  0.40965554     0.02700
C883        C  0.75639539  0.47019557  0.37860708     0.37400
C884        C  0.78757852  0.36102691  0.43312752     0.37400
C885        C  0.70704258  0.32715205  0.40142808     0.35800
C886        C  0.83082166  0.00476022  0.43806216     0.35800
N887        N  0.68353715  0.29127817  0.39435328    -0.39000
N888        N  0.85480887  0.04048899  0.44620756    -0.39000
N889        N  0.79333176  0.33765264  0.43754386    -0.38500
N890        N  0.75136130  0.49208210  0.36046055    -0.38500
C891        C  0.56707060  0.42890773  0.47715776    -0.05100
C892        C  0.54583057  0.39609914  0.43909096    -0.02300
C893        C  0.56389581  0.37926231  0.41995699     0.02700
C894        C  0.60400644  0.39488299  0.43862435    -0.05100
C895        C  0.62120787  0.42247372  0.48392106    -0.02200
C896        C  0.60397346  0.44080715  0.50115516     0.02700
C897        C  0.50405084  0.37787032  0.42119864     0.37400
C898        C  0.65271193  0.42836286  0.51793490     0.37400
C899        C  0.62448793  0.47191008  0.54392744     0.35800
C900        C  0.54001088  0.34481546  0.38155844     0.35800
N901        N  0.64108945  0.49641599  0.57834493    -0.39000
N902        N  0.52097585  0.31751698  0.35090158    -0.39000
N903        N  0.67742322  0.43314519  0.54631949    -0.38500
N904        N  0.47052606  0.36242900  0.40691704    -0.38500
C905        C  0.59546704  0.27200845  0.41404674    -0.05100
C906        C  0.56305305  0.23653334  0.38456611    -0.02300
C907        C  0.54705065  0.19612142  0.40077923     0.02700
C908        C  0.56002068  0.19040896  0.45040489    -0.05100
C909        C  0.58977729  0.22626285  0.48253767    -0.02200
C910        C  0.60798284  0.26673896  0.46383402     0.02700
C911        C  0.54532562  0.24175560  0.33849067     0.37400
C912        C  0.60047564  0.22219117  0.53650265     0.37400
C913        C  0.63894624  0.30312914  0.49684988     0.35800
C914        C  0.51857012  0.16124947  0.36480013     0.35800
N915        N  0.66361056  0.33202395  0.52318814    -0.39000
N916        N  0.49633456  0.13436376  0.33459685    -0.39000
N917        N  0.60972467  0.22059304  0.57994243    -0.38500
N918        N  0.53136480  0.24639237  0.30205336    -0.38500
C919        C  0.59918252  0.27009134  0.16338304    -0.05100
C920        C  0.59188257  0.23915352  0.19895340    -0.02300
C921        C  0.57264258  0.19843341  0.17965867     0.02700
C922        C  0.56257875  0.18876944  0.12429859    -0.05100
C923        C  0.57358361  0.22041700  0.08779708    -0.02200
C924        C  0.59303026  0.26103463  0.10667330     0.02700
C925        C  0.60879734  0.24974707  0.25307603     0.37400
C926        C  0.56453878  0.21116019  0.03041040     0.37400
C927        C  0.61063468  0.29436939  0.06660224     0.35800
C928        C  0.56477832  0.16673812  0.21629745     0.35800
N929        N  0.62478359  0.32088129  0.03459964    -0.39000
N930        N  0.55852963  0.14132268  0.24512020    -0.39000
N931        N  0.05712876  0.20347159  0.98658161    -0.38500
N932        N  0.62368899  0.25681608  0.29547436    -0.38500
C933        C  0.72871412  0.39590903  0.17567105    -0.05100
C934        C  0.73682885  0.37052643  0.15486157    -0.02300
C935        C  0.77791743  0.38839230  0.13839288     0.02700
C936        C  0.81256775  0.43210779  0.14539959    -0.05100
C937        C  0.80469043  0.45616794  0.17332274    -0.02200
C938        C  0.76302433  0.43847693  0.18659033     0.02700
C939        C  0.70337468  0.32567926  0.14922368     0.37400
C940        C  0.83927240  0.99858618  0.19246001     0.37400
C941        C  0.75537321  0.46405208  0.21259964     0.35800
C942        C  0.78306138  0.36065475  0.11310185     0.35800
N943        N  0.74908389  0.48430853  0.23322432    -0.39000
N944        N  0.78600023  0.33770606  0.09306547    -0.39000
N945        N  0.86589939  0.03239800  0.20737165    -0.38500
N946        N  0.67947328  0.28965024  0.14401892    -0.38500
C947        C  0.57038150  0.42893175  0.09583342    -0.05100
C948        C  0.61386597  0.45177731  0.09127694    -0.02300
C949        C  0.63234836  0.43645106  0.11504916     0.02700
C950        C  0.60674733  0.39551820  0.13978760    -0.05100
C951        C  0.56266323  0.37355360  0.14532743    -0.02200
C952        C  0.54487710  0.38979458  0.12258786     0.02700
C953        C  0.64020571  0.49285687  0.06516016     0.37400
C954        C  0.53535055  0.33576593  0.17858651     0.37400
C955        C  0.00147686  0.36890318  0.13618964     0.35800
C956        C  0.67769151  0.46639922  0.12006246     0.35800
N957        N  0.96572594  0.35046998  0.14031875    -0.39000
N958        N  0.71393126  0.49155112  0.12340580    -0.39000
N959        N  0.51336114  0.30581232  0.20530082    -0.38500
N960        N  0.66157154  0.02773752  0.04826734    -0.38500
C961        C  0.86092144  0.12196330  0.63504245    -0.05100
C962        C  0.88702432  0.13776783  0.58749524    -0.02300
C963        C  0.90537252  0.12049208  0.57017099     0.02700
C964        C  0.89493212  0.08477816  0.59668934    -0.05100
C965        C  0.86279191  0.06427212  0.63673690    -0.02200
C966        C  0.84573037  0.08231178  0.65546187     0.02700
C967        C  0.89099812  0.16757980  0.55157866     0.37400
C968        C  0.84562174  0.02331040  0.65725886     0.37400
C969        C  0.81162121  0.05899183  0.69533384     0.35800
C970        C  0.93510202  0.13980255  0.52486263     0.35800
N971        N  0.78441587  0.04014121  0.72698536    -0.39000
N972        N  0.95856017  0.15522074  0.48849605    -0.39000
N973        N  0.82818325  0.48855249  0.67602802    -0.38500
N974        N  0.89420978  0.19093062  0.52176129    -0.38500
C975        C  0.87454188  0.25275421  0.67194693    -0.05100
C976        C  0.91880403  0.28509747  0.66806399    -0.02300
C977        C  0.93680642  0.32530622  0.64776236     0.02700
C978        C  0.91117567  0.33569711  0.63765564    -0.05100
C979        C  0.86774425  0.30538840  0.65065529    -0.02200
C980        C  0.84924667  0.26378348  0.66458922     0.02700
C981        C  0.94618895  0.27757045  0.68683628     0.37400
C982        C  0.84167100  0.31688367  0.65207280     0.37400
C983        C  0.80389112  0.23313616  0.66921417     0.35800
C984        C  0.98160378  0.35501051  0.63559970     0.35800
N985        N  0.76765308  0.21151587  0.67195883    -0.39000
N986        N  0.52105693  0.38061289  0.63375927    -0.39000
N987        N  0.82000594  0.32492803  0.65470053    -0.38500
N988        N  0.96797340  0.27165190  0.70232593    -0.38500
C989        C  0.66329308  0.09094799  0.62913264    -0.05100
C990        C  0.69370087  0.10021116  0.59130679    -0.02300
C991        C  0.73452252  0.11904035  0.60851008     0.02700
C992        C  0.74477761  0.12621741  0.66480328    -0.05100
C993        C  0.71523039  0.12095626  0.70147313    -0.02200
C994        C  0.67450859  0.10287744  0.68369478     0.02700
C995        C  0.68290969  0.09031269  0.53429381     0.37400
C996        C  0.72757331  0.13909580  0.75496017     0.37400
C997        C  0.64460334  0.09834926  0.72085014     0.35800
C998        C  0.76659218  0.13376598  0.56721130     0.35800
N999        N  0.62080392  0.09506488  0.75013686    -0.39000
N1000       N  0.79199513  0.14541116  0.53413808    -0.39000
N1001       N  0.73634449  0.15527496  0.79673535    -0.38500
N1002       N  0.67431628  0.08231365  0.48890770    -0.38500
C1003       C  0.87962289  0.13597421  0.93552164    -0.05100
C1004       C  0.91716027  0.14741016  0.91209054    -0.02300
C1005       C  0.93372810  0.12894591  0.93081685     0.02700
C1006       C  0.91424760  0.09979127  0.97446922    -0.05700
C1007       C  0.88143435  0.09390559  0.00350299    -0.02200
C1008       C  0.86570627  0.11350275  0.98579170     0.02700
C1009       C  0.93974062  0.17867995  0.86886886     0.37400
C1010       C  0.86281121  0.06689496  0.05116813     0.37400
C1011       C  0.83869954  0.11377932  0.02270968     0.35800
C1012       C  0.97190832  0.14126553  0.90577161     0.35800
N1013       N  0.81732349  0.11382619  0.05281310    -0.39000
N1014       N  0.00248402  0.15169276  0.88548424    -0.39000
N1015       N  0.84751783  0.04537382  0.08922194    -0.38500
N1016       N  0.95784620  0.20289190  0.83369600    -0.38500
C1017       C  0.91354741  0.33579199  0.94267193    -0.05100
C1018       C  0.87025361  0.30526270  0.92979182    -0.02300
C1019       C  0.85310581  0.26503520  0.91092807     0.02700
C1020       C  0.87936345  0.25522661  0.90166630    -0.05100
C1021       C  0.92339477  0.28806726  0.90639150    -0.02200
C1022       C  0.94008585  0.32677991  0.92986117     0.02700
C1023       C  0.84281271  0.31499082  0.93468473     0.37400
C1024       C  0.95226788  0.28306206  0.88487529     0.37400
C1025       C  0.98460628  0.35621928  0.94260963     0.35800
C1026       C  0.80829710  0.23463834  0.90135083     0.35800
N1027       N  0.51979428  0.38249261  0.93938816    -0.39000
N1028       N  0.77248332  0.21206050  0.89358749    -0.39000
N1029       N  0.97601562  0.28014705  0.86749543    -0.38500
N1030       N  0.82035089  0.32203358  0.93800141    -0.38500
C1031       C  0.75024836  0.12298094  0.91291249    -0.05100
C1032       C  0.74405660  0.13453276  0.96317625    -0.02300
C1033       C  0.70329150  0.11717877  0.98032596     0.02700
C1034       C  0.66813200  0.08884098  0.94661322    -0.05100
C1035       C  0.67453788  0.07639817  0.89690089    -0.02200
C1036       C  0.71516172  0.09207036  0.88153989     0.02700
C1037       C  0.77966998  0.16332463  0.99833024     0.37400
C1038       C  0.64004713  0.04837061  0.86025623     0.37400
C1039       C  0.72080542  0.07540166  0.83428778     0.35800
C1040       C  0.69753989  0.12620240  0.03470136     0.35800
N1041       N  0.72535063  0.06209404  0.79669807    -0.39000
N1042       N  0.69346238  0.13311454  0.07854202    -0.39000
N1043       N  0.61367984  0.02642310  0.82934678    -0.38500
N1044       N  0.80803041  0.18612330  0.02640834    -0.38500
C1045       C  0.85664458  0.64870715  0.90856802     0.86700
C1046       C  0.87793460  0.69453464  0.92035546    -0.53600
C1047       C  0.86111349  0.70948240  0.89426286     0.09600
C1048       C  0.82329034  0.67604364  0.85822961     0.20600
C1049       C  0.80996085  0.62364251  0.92204997    -0.54300
C1050       C  0.79277313  0.63829491  0.89731065     0.09700
C1051       C  0.85581942  0.64544965  0.84645075    -0.53800
C1052       C  0.83990231  0.66087326  0.81888794     0.10300
H1053       H  0.90379631  0.71330307  0.94858349     0.14800
H1054       H  0.80911586  0.68734685  0.83715134     0.00500
H1055       H  0.79080753  0.59572909  0.94743797     0.15100
H1056       H  0.86567532  0.62993155  0.82729451     0.14900
C1057       C  0.84865906  0.64498547  0.66614364     0.86700
C1058       C  0.80196704  0.62130453  0.65891667    -0.53600
C1059       C  0.78686844  0.63828451  0.68384061     0.09600
C1060       C  0.82013197  0.67598471  0.72071734     0.20600
C1061       C  0.87100800  0.69139129  0.65237688    -0.54300
C1062       C  0.85627052  0.70781935  0.68066464     0.09700
C1063       C  0.85440745  0.64649556  0.72726682    -0.53800
C1064       C  0.83831636  0.66071130  0.75741696     0.10300
H1065       H  0.78284351  0.59436376  0.63227221     0.14800
H1066       H  0.80907542  0.68988084  0.74351071     0.00500
H1067       H  0.89781937  0.71120479  0.62545509     0.15100
H1068       H  0.87077340  0.63686397  0.74390983     0.14900
C1069       C  0.62570043  0.87776811  0.16653201     0.86700
C1070       C  0.67135814  0.89698081  0.15324822    -0.53600
C1071       C  0.68511080  0.88022325  0.18231780     0.09600
C1072       C  0.65122777  0.84376631  0.22016943     0.20600
C1073       C  0.60068948  0.83104305  0.15494361    -0.54300
C1074       C  0.61425615  0.81277837  0.18061718     0.09700
C1075       C  0.62401765  0.88011637  0.22796570    -0.53800
C1076       C  0.63666647  0.86249416  0.25754021     0.10300
H1077       H  0.69071173  0.91914929  0.12074420     0.14800
H1078       H  0.66357248  0.83095388  0.24222915     0.00500
H1079       H  0.57551885  0.81432534  0.12554810     0.15100
H1080       H  0.61291656  0.89502790  0.24535197     0.14900
C1081       C  0.62120440  0.87651841  0.41010364     0.86700
C1082       C  0.59651536  0.83021027  0.42190847    -0.53600
C1083       C  0.61094961  0.81330997  0.39571711     0.09600
C1084       C  0.64952238  0.84458676  0.35782129     0.20600
C1085       C  0.66723537  0.89768876  0.42270045    -0.54300
C1086       C  0.68270152  0.88150774  0.39547106     0.09700
C1087       C  0.62236845  0.88049009  0.34788315    -0.53800
C1088       C  0.63588470  0.86292034  0.31930990     0.10300
H1089       H  0.57068211  0.81247759  0.45124967     0.14800
H1090       H  0.66099930  0.83089552  0.33572310     0.00500
H1091       H  0.68695780  0.92422510  0.44926823     0.15100
H1092       H  0.61298898  0.89659694  0.32941914     0.14900
Zr1093     Zr  0.52004240  0.98153810  0.98545698     2.17500
O1094       O  0.52856408  0.96567354  0.89421321    -0.51100
O1095       O  0.54823924  0.95408500  0.03350657    -0.74300
O1096       O  0.59359326  0.52889620  0.95655935    -0.81100
O1097       O  0.90557517  0.87785861  0.99864196    -0.82900
O1098       O  0.62139279  0.59323065  0.98811909    -0.78500
O1099       O  0.96824542  0.90795054  0.95793380    -0.90100
O1100       O  0.54197764  0.96102026  0.12380072    -0.76100
O1101       O  0.55697790  0.52886680  0.05640360    -0.85600
O1102       O  0.97639360  0.94744651  0.06552442    -0.85300
O1103       O  0.53148505  0.54299440  0.95694871    -0.72000
O1104       O  0.95437121  0.96470766  0.96583835    -0.84200
Zr1105     Zr  0.95781729  0.54170664  0.09128960     2.26400
Zr1106     Zr  0.56682806  0.58991141  0.03209039     2.06300
Zr1107     Zr  0.91239864  0.93295256  0.04654666     2.10000
Zr1108     Zr  0.51310542  0.99556316  0.13615474     1.78800
O1109       O  0.85000272  0.89811279  0.99115544    -0.93000
O1110       O  0.58097657  0.53994973  0.17994637    -0.40800
O1111       O  0.94856153  0.98173375  0.11944544    -0.77400
O1112       O  0.52364111  0.55667685  0.11198865    -0.96100
O1113       O  0.00164916  0.57543713  0.01245127    -0.89400
O1114       O  0.92148708  0.49266795  0.01927950    -0.92200
C1115       C  0.55246009  0.94968833  0.08385889     1.01500
C1116       C  0.92954917  0.87604121  0.96834708     1.14400
C1117       C  0.62452334  0.56813110  0.96402681     1.05200
O1118       O  0.62398997  0.62858710  0.09680885    -0.94400
O1119       O  0.57124076  0.64549513  0.07357183    -0.90100
O1120       O  0.50855102  0.61631880  0.11501957    -0.83300
C1121       C  0.54702427  0.64763264  0.10269640     1.11900
O1122       O  0.96494711  0.50159173  0.85126734    -0.96400
Zr1123     Zr  0.96550340  0.52620449  0.94108337     1.88900
O1124       O  0.93162354  0.57034080  0.04040474    -0.73000
O1125       O  0.60426721  0.64802806  0.96696769    -0.52300
O1126       O  0.51377199  0.59000359  0.88225518    -0.97000
O1127       O  0.89394672  0.97705562  0.89958366    -0.54200
O1128       O  0.93862815  0.56276579  0.95082788    -0.73500
C1129       C  0.92854656  0.57529008  0.98968309     0.98800
O1130       O  0.94903806  0.55439685  0.18477406    -0.62400
O1131       O  0.88023740  0.87387829  0.10923481    -0.57200
O1132       O  0.88430915  0.99299367  0.12026700    -0.93800
O1133       O  0.86146753  0.92840852  0.10200325    -0.92300
O1134       O  0.96810503  0.93388813  0.19324671    -0.92600
O1135       O  0.00346395  0.51398951  0.22873510    -0.91400
C1136       C  0.85586851  0.95268142  0.12203441     1.17700
H1137       H  0.97066390  0.92165366  0.07392766     0.33600
H1138       H  0.53713696  0.57584244  0.14214410     0.44400
H1139       H  0.89383252  0.98540886  0.01494569     0.38000
H1140       H  0.54914252  0.55520433  0.92472525     0.34500
H1141       H  0.60116989  0.54378369  0.15338707     0.26200
H1142       H  0.63401280  0.66663028  0.97838478     0.32200
H1143       H  0.99674220  0.58313883  0.85172693     0.38100
H1144       H  0.98730535  0.93089968  0.21056031     0.32500
H1145       H  0.89710781  0.86510672  0.10549408     0.31400
H1146       H  0.86049898  0.90272433  0.95329224     0.33100
H1147       H  0.90326106  0.50632689  0.86577186     0.32100
H1148       H  0.49782689  0.52513297  0.22567522     0.36100
H1149       H  0.93124377  0.52646975  0.20276100     0.28800
H1150       H  0.55192740  0.96533199  0.89659738     0.33000
H1151       H  0.98529393  0.49701195  0.85348432     0.35900
H1152       H  0.88709045  0.88645734  0.14583271     0.28500
H1153       H  0.97693091  0.56956569  0.20153304     0.41400
H1154       H  0.64569987  0.65628808  0.07923503     0.31400
H1155       H  0.58862622  0.56776935  0.18147785     0.39000
H1156       H  0.87477701  0.97646898  0.92424968     0.30900
H1157       H  0.60390244  0.63587230  0.93226838     0.31000
H1158       H  0.53976537  0.99099429  0.87250906     0.31200
Zr1159     Zr  0.95557078  0.54148959  0.48667112     2.17500
O1160       O  0.94795337  0.55521093  0.39358571    -0.51100
O1161       O  0.92253980  0.56414825  0.53524150    -0.74300
O1162       O  0.88259579  0.99001123  0.45580587    -0.81100
O1163       O  0.56782910  0.64501304  0.49333080    -0.82900
O1164       O  0.85351213  0.92602192  0.49019569    -0.78500
O1165       O  0.50302763  0.61544977  0.46143667    -0.90100
O1166       O  0.92506342  0.55418730  0.62534666    -0.76100
O1167       O  0.91816135  0.49255186  0.55970595    -0.85600
O1168       O  0.99785815  0.57554694  0.56503675    -0.85300
O1169       O  0.94336628  0.97863695  0.46172610    -0.72000
O1170       O  0.51932190  0.55566533  0.46042808    -0.84200
Zr1171     Zr  0.51721394  0.98246832  0.59132014     2.26400
Zr1172     Zr  0.90909834  0.93415091  0.54021123     2.06300
Zr1173     Zr  0.56442131  0.59062256  0.53674556     2.10000
Zr1174     Zr  0.96067938  0.52654206  0.63759770     1.78800
O1175       O  0.62276775  0.63030143  0.47172756    -0.93000
O1176       O  0.90373160  0.98366285  0.69441753    -0.40800
O1177       O  0.53075716  0.54561911  0.61470417    -0.77400
O1178       O  0.95409514  0.96926061  0.61717774    -0.96100
O1179       O  0.97244648  0.94754396  0.51696361    -0.89400
O1180       O  0.55399811  0.52911328  0.51424662    -0.92200
C1181       C  0.91510914  0.56590268  0.58545324     1.01500
C1182       C  0.54215554  0.64713578  0.46901444     1.14400
C1183       C  0.85125573  0.95073271  0.46276833     1.05200
O1184       O  0.85181429  0.90310606  0.60588820    -0.94400
O1185       O  0.90635950  0.88065208  0.58559147    -0.90100
O1186       O  0.96913519  0.91025051  0.62342715    -0.83300
C1187       C  0.93036163  0.87843816  0.61444151     1.11900
O1188       O  0.01320406  0.52038421  0.35102139    -0.96400
Zr1189     Zr  0.51168138  0.99781007  0.44021712     1.88900
O1190       O  0.54501693  0.95459240  0.54215979    -0.73000
O1191       O  0.87361551  0.87074633  0.48691538    -0.52300
O1192       O  0.96851400  0.93229181  0.38241812    -0.97000
O1193       O  0.57232696  0.53909090  0.38609553    -0.54200
O1194       O  0.54005593  0.96273846  0.45209702    -0.73500
C1195       C  0.54945352  0.95020753  0.49168415     0.98800
O1196       O  0.52760316  0.97165725  0.68487217    -0.62400
O1197       O  0.59994607  0.64388044  0.60678536    -0.57200
O1198       O  0.59333501  0.53446850  0.61580729    -0.93800
O1199       O  0.62094913  0.59766079  0.57838372    -0.92300
O1200       O  0.50901959  0.59664674  0.68790317    -0.92600
O1201       O  0.96943896  0.51642647  0.73202117    -0.91400
C1202       C  0.62381490  0.57355954  0.60569749     1.17700
H1203       H  0.50697076  0.60324014  0.56861176     0.33600
H1204       H  0.94132449  0.95107964  0.64879200     0.44400
H1205       H  0.58049705  0.53591541  0.50633037     0.38000
H1206       H  0.92530334  0.96542307  0.43055067     0.34500
H1207       H  0.89277027  0.49302522  0.71219771     0.26200
H1208       H  0.84409956  0.85214642  0.50016396     0.32200
H1209       H  0.93891896  0.91526631  0.39475643     0.38100
H1210       H  0.98203871  0.59065148  0.71038311     0.32500
H1211       H  0.62290890  0.67011080  0.58727297     0.31400
H1212       H  0.64685516  0.65409958  0.49271670     0.33100
H1213       H  0.58417516  0.52497290  0.38513269     0.32100
H1214       H  0.00247440  0.02757875  0.72948815     0.36100
H1215       H  0.54859758  0.50266754  0.70136443     0.28800
H1216       H  0.92581509  0.55740552  0.39499869     0.33000
H1217       H  0.00565100  0.03408898  0.34970942     0.35900
H1218       H  0.57960954  0.64741291  0.61759328     0.28500
H1219       H  0.00561838  0.95745174  0.70444970     0.41400
H1220       H  0.83879337  0.91543708  0.59711761     0.31400
H1221       H  0.87970759  0.96909181  0.66934948     0.39000
H1222       H  0.59195582  0.56407727  0.40894097     0.30900
H1223       H  0.87302503  0.87920691  0.44963912     0.31000
H1224       H  0.93528846  0.52899073  0.37355686     0.31200
C1225       C  0.72754301  0.89924529  0.40304496    -0.05100
C1226       C  0.76060501  0.94322921  0.40743625    -0.02300
C1227       C  0.80035031  0.95997552  0.42752828     0.02700
C1228       C  0.80966347  0.93341641  0.43828200    -0.05100
C1229       C  0.77865709  0.89030064  0.42507678    -0.02200
C1230       C  0.73767303  0.87312756  0.40957148     0.02700
C1231       C  0.75442378  0.97189368  0.38953342     0.37400
C1232       C  0.78878189  0.86318376  0.42428060     0.37400
C1233       C  0.70661692  0.82828250  0.40076216     0.35800
C1234       C  0.83154518  0.50437369  0.43247456     0.35800
N1235       N  0.68328919  0.79243030  0.39353068    -0.39000
N1236       N  0.85462863  0.54015002  0.44034993    -0.39000
N1237       N  0.79509386  0.84017335  0.42168926    -0.38500
N1238       N  0.74962656  0.99483618  0.37539093    -0.38500
C1239       C  0.56527302  0.92796744  0.47720511    -0.05100
C1240       C  0.54393643  0.89601507  0.43785820    -0.02300
C1241       C  0.56096486  0.87809701  0.41866233     0.02700
C1242       C  0.60003541  0.89185707  0.43853583    -0.05100
C1243       C  0.61584906  0.91690150  0.48617908    -0.02200
C1244       C  0.60032191  0.93694164  0.50313271     0.02700
C1245       C  0.50304790  0.87976052  0.41890053     0.37400
C1246       C  0.64242951  0.91666773  0.52316462     0.37400
C1247       C  0.62057654  0.96668331  0.54743522     0.35800
C1248       C  0.53694513  0.84419653  0.37961964     0.35800
N1249       N  0.63685150  0.99030424  0.58287022    -0.39000
N1250       N  0.51770661  0.81722275  0.34855018    -0.39000
N1251       N  0.66283823  0.91588032  0.55362667    -0.38500
N1252       N  0.47016769  0.86604894  0.40402556    -0.38500
C1253       C  0.59442248  0.77088517  0.41234277    -0.05100
C1254       C  0.56147212  0.73509431  0.38361694    -0.02300
C1255       C  0.54546790  0.69478007  0.40036753     0.02700
C1256       C  0.55899958  0.68952720  0.44974836    -0.05100
C1257       C  0.58829570  0.72543717  0.48188196    -0.02200
C1258       C  0.60684504  0.76584423  0.46244976     0.02700
C1259       C  0.54293633  0.73969797  0.33800104     0.37400
C1260       C  0.59698884  0.72124765  0.53713011     0.37400
C1261       C  0.63773150  0.80234788  0.49531685     0.35800
C1262       C  0.51566981  0.65933884  0.36578223     0.35800
N1263       N  0.66237067  0.83132985  0.52154388    -0.39000
N1264       N  0.49216206  0.63187995  0.33691609    -0.39000
N1265       N  0.60406218  0.71943916  0.58183357    -0.38500
N1266       N  0.52795769  0.74335518  0.30191283    -0.38500
C1267       C  0.59958064  0.77073135  0.16116489    -0.05100
C1268       C  0.59317566  0.74038529  0.19700212    -0.02300
C1269       C  0.57551233  0.70002782  0.17804580     0.02700
C1270       C  0.56477596  0.68958587  0.12299459    -0.05100
C1271       C  0.57337211  0.72014854  0.08643778    -0.02200
C1272       C  0.59258791  0.76092257  0.10459785     0.02700
C1273       C  0.60896221  0.75122236  0.25164292     0.37400
C1274       C  0.56162308  0.70929676  0.02990663     0.37400
C1275       C  0.60952479  0.79367028  0.06383462     0.35800
C1276       C  0.56982144  0.66958589  0.21495196     0.35800
N1277       N  0.62336721  0.81977405  0.03127804    -0.39000
N1278       N  0.56560684  0.64556137  0.24449417    -0.39000
N1279       N  0.05063154  0.70066861  0.98659267    -0.38500
N1280       N  0.62301713  0.75863390  0.29462947    -0.38500
C1281       C  0.72902827  0.89628522  0.17567190    -0.05100
C1282       C  0.73707423  0.87087161  0.15452164    -0.02300
C1283       C  0.77841523  0.88850639  0.13979171     0.02700
C1284       C  0.81293716  0.93232221  0.14636769    -0.05100
C1285       C  0.80503906  0.95620164  0.17471179    -0.02200
C1286       C  0.76340506  0.93843708  0.18821237     0.02700
C1287       C  0.70342883  0.82629769  0.14670137     0.37400
C1288       C  0.83895280  0.49885073  0.19018943     0.37400
C1289       C  0.75587924  0.96335357  0.21668472     0.35800
C1290       C  0.78423463  0.86034543  0.11794495     0.35800
N1291       N  0.74982124  0.98306313  0.23965745    -0.39000
N1292       N  0.78811008  0.83730833  0.10088597    -0.39000
N1293       N  0.86570454  0.53295621  0.20405835    -0.38500
N1294       N  0.67955190  0.79049393  0.13945167    -0.38500
C1295       C  0.57062561  0.93000299  0.09776683    -0.05100
C1296       C  0.61427373  0.95345557  0.09392556    -0.02300
C1297       C  0.63285973  0.93805917  0.11701847     0.02700
C1298       C  0.60728533  0.89647941  0.13959767    -0.05100
C1299       C  0.56298922  0.87378267  0.14418967    -0.02200
C1300       C  0.54504626  0.89002627  0.12220148     0.02700
C1301       C  0.64052700  0.99484747  0.06860676     0.37400
C1302       C  0.53557153  0.83518584  0.17595068     0.37400
C1303       C  0.99866999  0.86600015  0.13218174     0.35800
C1304       C  0.67800590  0.96832328  0.12409817     0.35800
N1305       N  0.96277272  0.84689770  0.13601078    -0.39000
N1306       N  0.71405079  0.99367579  0.12947590    -0.39000
N1307       N  0.51368923  0.80458741  0.20152649    -0.38500
N1308       N  0.66139618  0.52560453  0.04446849    -0.38500
C1309       C  0.86171969  0.62186908  0.63719222    -0.05100
C1310       C  0.88824350  0.63754429  0.59019506    -0.02300
C1311       C  0.90591068  0.61959127  0.57328795     0.02700
C1312       C  0.89395239  0.58302608  0.59912858    -0.05100
C1313       C  0.86163897  0.56290248  0.63893158    -0.02200
C1314       C  0.84555098  0.58185546  0.65767705     0.02700
C1315       C  0.89361984  0.66819540  0.55443515     0.37400
C1316       C  0.84349982  0.52164666  0.65952805     0.37400
C1317       C  0.81143489  0.55914319  0.69764644     0.35800
C1318       C  0.93704857  0.63957540  0.52960805     0.35800
N1319       N  0.78419493  0.54090200  0.72930640    -0.39000
N1320       N  0.96178772  0.65583011  0.49469829    -0.39000
N1321       N  0.83118955  0.99040577  0.67347825    -0.38500
N1322       N  0.89799827  0.69220345  0.52464317    -0.38500
C1323       C  0.87474058  0.75268349  0.67250595    -0.05100
C1324       C  0.91889896  0.78568748  0.67277725    -0.02300
C1325       C  0.93732326  0.82656825  0.65440164     0.02700
C1326       C  0.91167951  0.83607323  0.63847011    -0.05100
C1327       C  0.86736020  0.80398027  0.64475424    -0.02200
C1328       C  0.84918386  0.76272467  0.66042157     0.02700
C1329       C  0.94562537  0.77766146  0.69290352     0.37400
C1330       C  0.83934992  0.81255585  0.63509177     0.37400
C1331       C  0.80376123  0.73122552  0.66183232     0.35800
C1332       C  0.98283130  0.85789999  0.65018916     0.35800
N1333       N  0.76747130  0.70935193  0.66169051    -0.39000
N1334       N  0.51893902  0.87935872  0.62892300    -0.39000
N1335       N  0.81616649  0.81822593  0.62731633    -0.38500
N1336       N  0.96660187  0.77089846  0.70904360    -0.38500
C1337       C  0.66584605  0.59222399  0.62577707    -0.05100
C1338       C  0.69670508  0.60138266  0.58891076    -0.02300
C1339       C  0.73704124  0.61958387  0.60741519     0.02700
C1340       C  0.74633698  0.62649618  0.66404187    -0.05100
C1341       C  0.71650262  0.62152174  0.69964934    -0.02200
C1342       C  0.67613992  0.60360137  0.68069879     0.02700
C1343       C  0.68671535  0.59149185  0.53171160     0.37400
C1344       C  0.72831925  0.63984585  0.75313209     0.37400
C1345       C  0.64562454  0.59841310  0.71728200     0.35800
C1346       C  0.76962353  0.63389855  0.56710031     0.35800
N1347       N  0.62148983  0.59456723  0.74651651    -0.39000
N1348       N  0.79548345  0.64516602  0.53493836    -0.39000
N1349       N  0.73683667  0.65604821  0.79489249    -0.38500
N1350       N  0.67869563  0.58335512  0.48622634    -0.38500
C1351       C  0.87913060  0.63478676  0.93640329    -0.05100
C1352       C  0.91682058  0.64651291  0.91329401    -0.02300
C1353       C  0.93303859  0.62759724  0.93130122     0.02700
C1354       C  0.91309105  0.59773007  0.97415742    -0.05700
C1355       C  0.87940410  0.59070676  0.00239032    -0.02200
C1356       C  0.86429565  0.61105371  0.98567700     0.02700
C1357       C  0.93999678  0.67864672  0.87118767     0.37400
C1358       C  0.85892736  0.56145157  0.04777336     0.37400
C1359       C  0.83753681  0.61131949  0.02314584     0.35800
C1360       C  0.97111577  0.63994420  0.90587315     0.35800
N1361       N  0.81652395  0.61151454  0.05378722    -0.39000
N1362       N  0.00153667  0.65038596  0.88504846    -0.39000
N1363       N  0.84189799  0.53796168  0.08378030    -0.38500
N1364       N  0.95872279  0.70356465  0.83689929    -0.38500
C1365       C  0.91169900  0.83430733  0.94405187    -0.05100
C1366       C  0.86774463  0.80210387  0.93587563    -0.02300
C1367       C  0.85104002  0.76218349  0.91625256     0.02700
C1368       C  0.87787242  0.75359920  0.90370025    -0.05100
C1369       C  0.92184021  0.78718601  0.90565427    -0.02200
C1370       C  0.93856846  0.82620856  0.92818012     0.02700
C1371       C  0.83876623  0.80922017  0.94749189     0.37400
C1372       C  0.95049177  0.78250969  0.88220563     0.37400
C1373       C  0.98359319  0.85675477  0.93743245     0.35800
C1374       C  0.80600867  0.73080468  0.90876820     0.35800
N1375       N  0.52049776  0.88198031  0.94356227    -0.39000
N1376       N  0.76999250  0.70758387  0.90252210    -0.39000
N1377       N  0.97406913  0.77992893  0.86315029    -0.38500
N1378       N  0.81470181  0.81363795  0.95659498    -0.38500
C1379       C  0.74972507  0.62083516  0.91279622    -0.05100
C1380       C  0.74290142  0.63073565  0.96395452    -0.02300
C1381       C  0.70203528  0.61290281  0.98073038     0.02700
C1382       C  0.66742957  0.58572212  0.94582473    -0.05100
C1383       C  0.67436056  0.57478454  0.89513030    -0.02200
C1384       C  0.71520411  0.59107616  0.87989228     0.02700
C1385       C  0.77815436  0.65940810  0.99968528     0.37400
C1386       C  0.64025726  0.54793392  0.85747019     0.37400
C1387       C  0.72175854  0.57629317  0.83126897     0.35800
C1388       C  0.69572183  0.62063817  0.03563992     0.35800
N1389       N  0.72734228  0.56471106  0.79262385    -0.39000
N1390       N  0.69139214  0.62664981  0.07989052    -0.39000
N1391       N  0.61401562  0.52693740  0.82601487    -0.38500
N1392       N  0.80620695  0.68246173  0.02805500    -0.38500
loop_ 
_geom_bond_atom_site_label_1 
_geom_bond_atom_site_label_2 
_geom_bond_distance 
_geom_bond_site_symmetry_2 
_ccdc_geom_bond_type 
C1            C2   1.531       .  S
C1            C7   1.533       .  S
C1            C5   1.532       .  S
C1          C307   1.555       .  S
C2            H9   1.086       .  S
C2            C3   1.372       .  D
C3            C4   1.549       .  S
C3          C324   1.515       .  S
C4            C8   1.548       .  S
C4            C6   1.553       .  S
C4           H10   1.102       .  S
C5           H11   1.083       .  S
C5            C6   1.361       .  D
C6          C335   1.483       .  S
C7           H12   1.078       .  S
C7            C8   1.372       .  D
C8           C20   1.517       .  S
C13          C14   1.523       .  S
C13          C19   1.525       .  S
C13          C17   1.546       .  S
C13         C265   1.562       .  S
C14          H21   1.087       .  S
C14          C15   1.367       .  D
C15          C16   1.558       .  S
C15         C296   1.512       .  S
C16          C20   1.562       .  S
C16          C18   1.549       .  S
C16          H22   1.104       .  S
C17          H23   1.076       .  S
C17          C18   1.372       .  D
C18         C279   1.512       .  S
C19          H24   1.079       .  S
C19          C20   1.372       .  D
C25          C26   1.547       .  S
C25          C31   1.514       .  S
C25          C29   1.538       .  S
C25         C254   1.565       .  S
C26          H33   1.081       .  S
C26          C27   1.368       .  D
C27          C28   1.544       .  S
C27         C237   1.503       .  S
C28          C32   1.568       .  S
C28          C30   1.564       .  S
C28          H34   1.103       .  S
C29          H35   1.085       .  S
C29          C30   1.375       .  D
C30         C223   1.527       .  S
C31          H36   1.079       .  S
C31          C32   1.365       .  D
C32          C44   1.517       .  S
C37          C38   1.518       .  S
C37          C43   1.536       .  S
C37          C41   1.543       .  S
C37         C198   1.557       .  S
C38          H45   1.087       .  S
C38          C39   1.354       .  D
C39          C40   1.548       .  S
C39         C209   1.477       .  S
C40          C44   1.543       .  S
C40          C42   1.548       .  S
C40          H46   1.102       .  S
C41          H47   1.077       .  S
C41          C42   1.375       .  D
C42         C181   1.509       .  S
C43          H48   1.079       .  S
C43          C44   1.379       .  D
Zr49         O50   2.433       .  S
Zr49         O51   2.441   1_556  S
Zr49        O400   2.436       .  S
Zr49        O751   2.422   1_455  S
Zr49        O405   2.380   1_556  S
Zr49        O754   2.380   1_456  S
Zr49        O407   2.405       .  S
Zr49        O756   2.401   1_455  S
O50         H106   0.990       .  S
O50         H114   0.989       .  S
O51          C71   1.285       .  A
O52        Zr397   2.439   1_545  S
O52          C73   1.286       .  A
O53         Zr63   2.444   1_556  S
O53          C72   1.287       .  A
O54         Zr62   2.437   1_556  S
O54          C73   1.287       .  A
O55        Zr745   2.429       .  S
O55          C72   1.285       .  A
O56         Zr64   2.434       .  S
O56          C71   1.284       .  A
O57         Zr62   2.393       .  S
O57        Zr397   2.381   1_544  S
O57        Zr412   2.372   1_545  S
O58         Zr63   2.383       .  S
O58        Zr745   2.380   1_554  S
O58        Zr760   2.369       .  S
O58          H93   0.965       .  S
O59         Zr62   2.396   1_556  S
O59        Zr397   2.408   1_545  S
O59        Zr775   2.406   1_455  S
O59          H96   0.966       .  S
O60         Zr63   2.389   1_556  S
O60        Zr745   2.398       .  S
O60        Zr427   2.393       .  S
Zr61         O86   2.439       .  S
Zr61         O80   2.442       .  S
Zr61        O436   2.457   1_545  S
Zr61        O772   2.437       .  S
Zr61         O69   2.385       .  S
Zr61         O70   2.381   1_545  S
Zr61        O415   2.407   1_545  S
Zr61        O764   2.408       .  S
Zr62         O81   2.435   1_554  S
Zr62         O74   2.433       .  S
Zr62         O75   2.445       .  S
Zr62         O68   2.395       .  S
Zr62        O765   2.384       .  S
Zr63         O65   2.431   1_554  S
Zr63         O87   2.438       .  S
Zr63         O89   2.427       .  S
Zr63         O67   2.388       .  S
Zr63        O418   2.389       .  S
Zr64        O786   2.436   1_455  S
Zr64       O1135   2.433       .  S
Zr64        O414   2.437       .  S
Zr64        O405   2.375       .  S
Zr64        O754   2.370   1_455  S
Zr64        O763   2.395   1_455  S
Zr64        O416   2.397       .  S
O65         H102   0.990       .  S
O66        Zr412   2.437   1_545  S
O66          H97   0.990       .  S
O66         H111   0.990       .  S
O67        Zr409   2.407       .  S
O67        Zr760   2.400       .  S
O68        Zr757   2.407   1_455  S
O68        Zr412   2.399   1_545  S
O68          H94   0.966       .  S
O69         Zr79   2.372   1_554  S
O69        Zr758   2.387       .  S
O70         Zr79   2.379   1_564  S
O70        Zr411   2.388       .  S
O70         H443   0.966       .  S
C71         C251   1.487       .  S
C72         C321   1.511       .  S
C73         C338   1.496       .  S
O74         H110   0.990       .  S
O75          C77   1.287       .  A
O76        Zr757   2.438   1_455  S
O76          C77   1.285       .  A
C77         C226   1.489       .  S
O78         Zr79   2.434       .  S
O78         H107   0.990   1_545  S
Zr79        O778   2.433       .  S
Zr79        O431   2.439   1_545  S
Zr79         O84   2.428       .  S
Zr79        O755   2.396       .  S
Zr79        O408   2.392   1_545  S
O80          C85   1.287   1_554  A
O81          H98   0.990       .  S
O81         H113   0.990       .  S
O82        Zr775   2.435   1_455  S
O82         H795   0.990       .  S
O83        Zr427   2.439       .  S
O83         H112   0.990       .  S
O83         H451   0.991       .  S
O84          C85   1.284       .  A
C85         C310   1.501       .  S
O86         H105   0.990       .  S
O86         H109   0.990       .  S
O87         H101   0.990       .  S
O87         H108   0.990       .  S
O88        Zr409   2.450       .  S
O88          C92   1.288       .  A
O89          C92   1.284       .  A
O90        Zr760   2.437       .  S
O90         H100   0.990       .  S
O91       Zr1108   2.432   1_545  S
O91         H800   0.990       .  S
C92         C240   1.521       .  S
H95         O418   0.966       .  S
H99         O778   0.989       .  S
H103        O431   0.990   1_545  S
H104        O787   0.990   1_655  S
Zr115       O116   2.436       .  S
Zr115       O117   2.440       .  S
Zr115       O466   2.430   1_545  S
Zr115       O817   2.442       .  S
Zr115       O123   2.380   1_545  S
Zr115       O124   2.379       .  S
Zr115       O473   2.407   1_545  S
Zr115       O822   2.399       .  S
O116        H172   0.990       .  S
O116        H180   0.990       .  S
O117        C137   1.286       .  A
O118       Zr463   2.431       .  S
O118        C139   1.284       .  A
O119       Zr129   2.432       .  S
O119        C138   1.286       .  A
O120       Zr128   2.453       .  S
O120        C139   1.289       .  A
O121       Zr811   2.425   1_455  S
O121        C138   1.284       .  A
O122       Zr130   2.439       .  S
O122        C137   1.287       .  A
O123       Zr130   2.372   1_565  S
O123       Zr476   2.388       .  S
O124       Zr130   2.371       .  S
O124       Zr825   2.381       .  S
O124        H855   0.966       .  S
O125       Zr128   2.392       .  S
O125       Zr463   2.405       .  S
O125       Zr841   2.396       .  S
O125        H162   0.966       .  S
O126       Zr129   2.387       .  S
O126       Zr811   2.403   1_455  S
O126       Zr493   2.392   1_545  S
Zr127       O152   2.442       .  S
Zr127       O146   2.431       .  S
Zr127       O502   2.439       .  S
Zr127       O838   2.432   1_455  S
Zr127       O481   2.396       .  S
Zr127       O830   2.405   1_455  S
Zr127       O831   2.381   1_455  S
Zr127       O484   2.381       .  S
Zr128       O147   2.432       .  S
Zr128       O140   2.431       .  S
Zr128       O141   2.451       .  S
Zr128       O134   2.396       .  S
Zr128       O135   2.385       .  S
Zr128       O471   2.388       .  S
Zr129       O131   2.435       .  S
Zr129       O153   2.430       .  S
Zr129       O155   2.420       .  S
Zr129       O133   2.392       .  S
Zr129       O136   2.385       .  S
Zr129       O820   2.386       .  S
Zr130       O157   2.434       .  S
Zr130       O852   2.435       .  S
Zr130       O480   2.434   1_545  S
Zr130       O829   2.401       .  S
Zr130       O482   2.394   1_545  S
O131        H168   0.990       .  S
O132       Zr478   2.434       .  S
O132        H177   0.990       .  S
O132        H511   0.990       .  S
O133       Zr475   2.400   1_545  S
O133       Zr826   2.399   1_455  S
O134       Zr823   2.405       .  S
O134       Zr478   2.394       .  S
O134        H160   0.966       .  S
O135       Zr823   2.382       .  S
O135       Zr841   2.375       .  S
O136       Zr475   2.387   1_545  S
O136       Zr493   2.368   1_545  S
O136        H161   0.966       .  S
C137        C268   1.499       .  S
C138        C212   1.486       .  S
C139        C184   1.516       .  S
O140        H176   0.990       .  S
O141        C143   1.290       .  A
O142       Zr823   2.433       .  S
O142        C143   1.284       .  A
C143        C282   1.512       .  S
O144      Zr1189   2.435   1_545  S
O144        H521   0.990       .  S
Zr145      O1188   2.435       .  S
Zr145       O844   2.437   1_455  S
Zr145       O497   2.442       .  S
Zr145       O150   2.431       .  S
Zr145       O821   2.401   1_455  S
Zr145       O474   2.395       .  S
Zr145       O831   2.374   1_455  S
Zr145       O484   2.365       .  S
O146        C151   1.284       .  A
O147        H164   0.990       .  S
O147        H179   0.990       .  S
O148       Zr841   2.434       .  S
O148        H165   0.990       .  S
O149       Zr493   2.438   1_545  S
O149        H169   0.990       .  S
O149        H178   0.989       .  S
O150        C151   1.285       .  A
C151        C195   1.491       .  S
O152        H519   0.991       .  S
O152        H871   0.990       .  S
O153        H167   0.990       .  S
O153        H174   0.989       .  S
O154       Zr475   2.443   1_545  S
O154        C158   1.286       .  A
O155        C158   1.282       .  A
O156       Zr826   2.438   1_455  S
O156        H862   0.990       .  S
O157        H518   0.990       .  S
C158        C293   1.479       .  S
H159        O820   0.966       .  S
H163        O480   0.990       .  S
H166        O852   0.990       .  S
H170        O505   0.990       .  S
H171        O500   0.990   1_545  S
H173        O492   0.990       .  S
H175        O848   0.990       .  S
C181        C182   1.414       .  A
C181        C186   1.415       .  A
C182        C183   1.413       .  A
C182        C187   1.454       .  S
C183        C184   1.426       .  A
C183        C538   1.453       .  S
C184        C185   1.424       .  A
C185        C186   1.417       .  A
C185        C188   1.451       .  S
C186        C189   1.450       .  S
C187        N194   1.157       .  T
C188        N193   1.157       .  T
C189        N191   1.157       .  T
C190        C531   1.453   1_545  S
C190        N192   1.158       .  T
C195        C196   1.409       .  A
C195        C200   1.412       .  A
C196        C197   1.409       .  A
C196        C201   1.453       .  S
C197        C198   1.428       .  A
C197        C204   1.455       .  S
C198        C199   1.426       .  A
C199        C200   1.417       .  A
C199        C202   1.448       .  S
C200        C203   1.452       .  S
C201        N208   1.157   1_455  T
C202        N207   1.158       .  T
C203        N205   1.157       .  T
C204        N206   1.158       .  T
C209        C210   1.407       .  A
C209        C214   1.410       .  A
C210        C211   1.411       .  A
C210        C215   1.452       .  S
C211        C212   1.419       .  A
C211        C218   1.449       .  S
C212        C213   1.415       .  A
C213        C214   1.403       .  A
C213        C216   1.450       .  S
C214        C217   1.454       .  S
C215        N222   1.157       .  T
C216        N221   1.157       .  T
C217        N219   1.157       .  T
C218        N220   1.157   1_455  T
C223        C224   1.424       .  A
C223        C228   1.429       .  A
C224        C225   1.420       .  A
C224        C229   1.442       .  S
C225        C226   1.409       .  A
C225        C232   1.452       .  S
C226        C227   1.405       .  A
C227        C228   1.412       .  A
C227        C230   1.451       .  S
C228        C231   1.452       .  S
C229        N236   1.156       .  T
C230        N931   1.157   1_554  T
C231        N233   1.157       .  T
C232        N234   1.157       .  T
N235        C926   1.157   1_556  T
C237        C238   1.410       .  A
C237        C242   1.412       .  A
C238        C239   1.415       .  A
C238        C243   1.447       .  S
C239        C240   1.429       .  A
C239        C246   1.455       .  S
C240        C241   1.426       .  A
C241        C242   1.417       .  A
C241        C592   1.450       .  S
C242        C245   1.452       .  S
C243        N250   1.156       .  T
C244        C589   1.449       .  S
C244        N249   1.157   1_565  T
C245        N247   1.157       .  T
C246        N248   1.158       .  T
C251        C252   1.405       .  A
C251        C256   1.405       .  A
C252        C253   1.418       .  A
C252        C257   1.452       .  S
C253        C254   1.433       .  A
C253        C260   1.448       .  S
C254        C255   1.433       .  A
C255        C256   1.414       .  A
C255        C258   1.453       .  S
C256        C955   1.453       .  S
C257        N612   1.157       .  T
C258        N263   1.158       .  T
C259        C952   1.454       .  S
C259        N261   1.157       .  T
C260        N262   1.158       .  T
N264        C605   1.157   1_545  T
C265        C266   1.426       .  A
C265        C270   1.427       .  A
C266        C267   1.419       .  A
C266        C271   1.448       .  S
C267        C268   1.415       .  A
C267        C274   1.452       .  S
C268        C269   1.411       .  A
C269        C270   1.412       .  A
C269        C272   1.451       .  S
C270        C273   1.454       .  S
C271        N278   1.158       .  T
C272        N625   1.157   1_545  T
C273        N275   1.157       .  T
C274        N276   1.157       .  T
N277        C620   1.157       .  T
C279        C280   1.419       .  A
C279        C284   1.415       .  A
C280        C281   1.418       .  A
C280        C285   1.453       .  S
C281        C282   1.424       .  A
C281        C288   1.452       .  S
C282        C283   1.416       .  A
C283        C284   1.412       .  A
C283        C286   1.452       .  S
C284        C287   1.446       .  S
C285        N292   1.158       .  T
C286        N291   1.157       .  T
C287        N289   1.156       .  T
C288        N986   1.158       .  T
N290        C984   1.158   1_455  T
C293        C294   1.406       .  A
C293        C298   1.409       .  A
C294        C295   1.407       .  A
C294        C299   1.453       .  S
C295        C296   1.424       .  A
C295        C302   1.453       .  S
C296        C297   1.418       .  A
C297        C298   1.416       .  A
C297        C300   1.443       .  S
C298        C301   1.452       .  S
C299        N306   1.157       .  T
C300        N305   1.156       .  T
C301        N303   1.157       .  T
C302        N304   1.157       .  T
C307        C308   1.426       .  A
C307        C312   1.423       .  A
C308        C309   1.412       .  A
C308        C313   1.454       .  S
C309        C310   1.415       .  A
C309        C316   1.453       .  S
C310        C311   1.415   1_556  A
C311        C312   1.416   1_554  A
C311        C314   1.449       .  S
C312        C315   1.450   1_556  S
C313        N320   1.157       .  T
C314        N319   1.156       .  T
C315        N317   1.158       .  T
C316        N318   1.157       .  T
C321        C322   1.420       .  A
C321        C326   1.421       .  A
C322        C323   1.418       .  A
C322        C327   1.452       .  S
C323        C324   1.420       .  A
C323        C330   1.448       .  S
C324        C325   1.418       .  A
C325        C326   1.412       .  A
C325        C328   1.452       .  S
C326        C329   1.454       .  S
C327        N334   1.157       .  T
C328        N333   1.157       .  T
C329       N1027   1.158       .  T
C330        N332   1.157       .  T
N331       C1025   1.158   1_455  T
C335        C336   1.410       .  A
C335        C340   1.405       .  A
C336        C337   1.409       .  A
C336        C341   1.453   1_556  S
C337        C338   1.419       .  A
C337        C344   1.451   1_556  S
C338        C339   1.421       .  A
C339        C340   1.413       .  A
C339        C342   1.448       .  S
C340        C343   1.452       .  S
C341        N348   1.157       .  T
C342        N347   1.157       .  T
C343        N345   1.157       .  T
C344        N346   1.157       .  T
C349        C350   1.533       .  S
C349        C355   1.532       .  S
C349        C353   1.531       .  S
C349        C655   1.555       .  S
C350        H357   1.086       .  S
C350        C351   1.372       .  D
C351        C352   1.550       .  S
C351        C672   1.517       .  S
C352        C356   1.549       .  S
C352        C354   1.556       .  S
C352        H358   1.101       .  S
C353        H359   1.082       .  S
C353        C354   1.361       .  D
C354        C683   1.485       .  S
C355        H360   1.079       .  S
C355        C356   1.372       .  D
C356        C368   1.517       .  S
C361        C362   1.526       .  S
C361        C367   1.523       .  S
C361        C365   1.545       .  S
C361        C613   1.561       .  S
C362        H369   1.087       .  S
C362        C363   1.368       .  D
C363        C364   1.558       .  S
C363        C644   1.516       .  S
C364        C368   1.563       .  S
C364        C366   1.550       .  S
C364        H370   1.103       .  S
C365        H371   1.078       .  S
C365        C366   1.373       .  D
C366        C627   1.511       .  S
C367        H372   1.079       .  S
C367        C368   1.371       .  D
C373        C374   1.548       .  S
C373        C379   1.514       .  S
C373        C377   1.534       .  S
C373        C602   1.562       .  S
C374        H381   1.080       .  S
C374        C375   1.368       .  D
C375        C376   1.541       .  S
C375        C585   1.502       .  S
C376        C380   1.565       .  S
C376        C378   1.561       .  S
C376        H382   1.103       .  S
C377        H383   1.086       .  S
C377        C378   1.372       .  D
C378        C571   1.519       .  S
C379        H384   1.079       .  S
C379        C380   1.366       .  D
C380        C392   1.515       .  S
C385        C386   1.520       .  S
C385        C391   1.533       .  S
C385        C389   1.544       .  S
C385        C546   1.557       .  S
C386        H393   1.087       .  S
C386        C387   1.354       .  D
C387        C388   1.552       .  S
C387        C557   1.483       .  S
C388        C392   1.545       .  S
C388        C390   1.548       .  S
C388        H394   1.102       .  S
C389        H395   1.075       .  S
C389        C390   1.375       .  D
C390        C529   1.510       .  S
C391        H396   1.079       .  S
C391        C392   1.377       .  D
Zr397       O398   2.433       .  S
Zr397       O399   2.438   1_556  S
Zr397      O1099   2.431   1_455  S
Zr397      O1102   2.378   1_456  S
Zr397      O1104   2.399   1_455  S
O398        H454   0.990       .  S
O398        H462   0.989       .  S
O399        C419   1.284       .  A
O400        C421   1.285       .  A
O401       Zr411   2.443   1_556  S
O401        C420   1.287       .  A
O402       Zr410   2.441   1_556  S
O402        C421   1.287       .  A
O403      Zr1093   2.433       .  S
O403        C420   1.286       .  A
O404       Zr412   2.431       .  S
O404        C419   1.283       .  A
O405       Zr410   2.389       .  S
O406      Zr1093   2.384   1_554  S
O406       Zr411   2.387       .  S
O406      Zr1108   2.370       .  S
O406        H441   0.965       .  S
O407       Zr410   2.392   1_556  S
O407      Zr1123   2.401   1_455  S
O407        H444   0.966       .  S
O408      Zr1093   2.397       .  S
O408       Zr411   2.389   1_556  S
Zr409       O434   2.441       .  S
Zr409       O428   2.444       .  S
Zr409      O1120   2.434       .  S
Zr409      O1112   2.410       .  S
Zr409       O417   2.383       .  S
Zr409       O418   2.382       .  S
Zr410       O429   2.436   1_554  S
Zr410       O422   2.430       .  S
Zr410       O423   2.443       .  S
Zr410       O416   2.394       .  S
Zr410      O1113   2.387       .  S
Zr411       O413   2.431   1_554  S
Zr411       O435   2.438       .  S
Zr411       O437   2.434       .  S
Zr411       O415   2.390       .  S
Zr412      O1134   2.436   1_455  S
Zr412       O787   2.432   1_565  S
Zr412      O1102   2.368   1_455  S
Zr412      O1111   2.397   1_455  S
O413        H450   0.990       .  S
O414        H445   0.990       .  S
O414        H459   0.990       .  S
O415      Zr1108   2.401       .  S
O416      Zr1105   2.408   1_455  S
O416        H442   0.966       .  S
O417      Zr1106   2.386       .  S
O417       Zr427   2.372   1_554  S
O418       Zr427   2.377   1_554  S
C419        C599   1.484       .  S
C420        C669   1.512       .  S
C421        C686   1.498       .  S
O422        H458   0.989       .  S
O423        C425   1.287       .  A
O424      Zr1105   2.428   1_455  S
O424        C425   1.283       .  A
C425        C574   1.482       .  S
O426       Zr427   2.434       .  S
O426        H455   0.990       .  S
Zr427      O1126   2.431       .  S
Zr427       O432   2.424       .  S
Zr427      O1103   2.395       .  S
O428        C433   1.287   1_554  A
O429        H446   0.990       .  S
O429        H461   0.990       .  S
O430      Zr1123   2.433   1_455  S
O430       H1143   0.990   1_455  S
O431        H460   0.990       .  S
O432        C433   1.283       .  A
C433        C658   1.499       .  S
O434        H453   0.990       .  S
O434        H457   0.990       .  S
O435        H449   0.990       .  S
O435        H456   0.990       .  S
O436        C440   1.289       .  A
O437        C440   1.285       .  A
O438      Zr1108   2.436       .  S
O438        H448   0.990       .  S
O439       Zr760   2.433       .  S
O439       H1148   0.990       .  S
C440        C588   1.523       .  S
H447       O1126   0.989       .  S
H452       O1135   0.990   1_655  S
Zr463       O464   2.435       .  S
Zr463       O465   2.434       .  S
Zr463      O1165   2.440       .  S
Zr463       O471   2.377       .  S
Zr463       O472   2.381       .  S
Zr463      O1170   2.403       .  S
O464        H520   0.990       .  S
O464        H528   0.990       .  S
O465        C485   1.285       .  A
O466        C487   1.284       .  A
O467       Zr477   2.439       .  S
O467        C486   1.288       .  A
O468       Zr476   2.450       .  S
O468        C487   1.288       .  A
O469      Zr1159   2.434   1_455  S
O469        C486   1.286       .  A
O470       Zr478   2.437       .  S
O470        C485   1.285       .  A
O471       Zr478   2.370       .  S
O472      Zr1173   2.387       .  S
O472       Zr478   2.371       .  S
O472       H1203   0.966       .  S
O473       Zr476   2.396       .  S
O473      Zr1189   2.399       .  S
O473        H510   0.966       .  S
O474      Zr1159   2.401   1_455  S
O474       Zr477   2.388       .  S
Zr475       O500   2.444       .  S
Zr475       O494   2.434       .  S
Zr475      O1186   2.441   1_455  S
Zr475      O1178   2.408   1_455  S
Zr475      O1179   2.386   1_455  S
Zr476       O495   2.432       .  S
Zr476       O488   2.431       .  S
Zr476       O489   2.451       .  S
Zr476       O482   2.391       .  S
Zr476       O483   2.387       .  S
Zr477       O479   2.434       .  S
Zr477       O501   2.431       .  S
Zr477       O503   2.428       .  S
Zr477      O1168   2.386   1_455  S
Zr477       O481   2.390       .  S
Zr477       O484   2.385       .  S
Zr478      O1200   2.437       .  S
Zr478       O505   2.432       .  S
Zr478      O1177   2.397       .  S
O479        H516   0.990       .  S
O480        H525   0.989       .  S
O481      Zr1174   2.396   1_455  S
O482      Zr1171   2.406       .  S
O482        H508   0.966       .  S
O483      Zr1171   2.381       .  S
O483      Zr1189   2.374       .  S
O484        H509   0.966       .  S
C485        C616   1.495       .  S
C486        C560   1.499       .  S
C487        C532   1.517       .  S
O488        H524   0.990       .  S
O489        C491   1.290       .  A
O490      Zr1171   2.435       .  S
O490        C491   1.285       .  A
C491        C630   1.513       .  S
O492       Zr841   2.436       .  S
Zr493       O840   2.433   1_465  S
Zr493      O1192   2.433   1_455  S
Zr493       O498   2.425       .  S
Zr493      O1169   2.395   1_455  S
Zr493      O1179   2.376   1_455  S
O494        C499   1.285       .  A
O495        H512   0.990       .  S
O495        H527   0.990       .  S
O496      Zr1189   2.434       .  S
O496        H513   0.989       .  S
O497        H517   0.990       .  S
O497        H526   0.990       .  S
O498        C499   1.283       .  A
C499        C543   1.489       .  S
O500       H1219   0.990       .  S
O501        H515   0.990       .  S
O501        H522   0.989       .  S
O502        C506   1.285       .  A
O503        C506   1.284       .  A
O504      Zr1174   2.435   1_455  S
O504       H1210   0.990   1_455  S
C506        C641   1.478       .  S
H507       O1168   0.967   1_455  S
H514       O1200   0.990       .  S
H523       O1196   0.990       .  S
C529        C530   1.416       .  A
C529        C534   1.414       .  A
C530        C531   1.413       .  A
C530        C535   1.454       .  S
C531        C532   1.426       .  A
C532        C533   1.424       .  A
C533        C534   1.416       .  A
C533        C536   1.451       .  S
C534        C537   1.449       .  S
C535        N542   1.157       .  T
C536        N541   1.157       .  T
C537        N539   1.157       .  T
C538        N540   1.158       .  T
C543        C544   1.408       .  A
C543        C548   1.411       .  A
C544        C545   1.408       .  A
C544        C549   1.454       .  S
C545        C546   1.430       .  A
C545        C552   1.455       .  S
C546        C547   1.427       .  A
C547        C548   1.417       .  A
C547        C550   1.448       .  S
C548        C551   1.452       .  S
C549        N556   1.157   1_455  T
C550        N555   1.158       .  T
C551        N553   1.157       .  T
C552        N554   1.158       .  T
C557        C558   1.405       .  A
C557        C562   1.409       .  A
C558        C559   1.413       .  A
C558        C563   1.452       .  S
C559        C560   1.423       .  A
C559        C566   1.449       .  S
C560        C561   1.421       .  A
C561        C562   1.408       .  A
C561        C564   1.449       .  S
C562        C565   1.454       .  S
C563        N570   1.157       .  T
C564        N569   1.156       .  T
C565        N567   1.157       .  T
C566        N568   1.157   1_455  T
C571        C572   1.421       .  A
C571        C576   1.429       .  A
C572        C573   1.417       .  A
C572        C577   1.442       .  S
C573        C574   1.408       .  A
C573        C580   1.452       .  S
C574        C575   1.404       .  A
C575        C576   1.409       .  A
C575        C578   1.450       .  S
C576        C579   1.453       .  S
C577        N584   1.156       .  T
C578       N1279   1.156   1_554  T
C579        N581   1.158       .  T
C580        N582   1.157       .  T
N583       C1274   1.157   1_556  T
C585        C586   1.409       .  A
C585        C590   1.410       .  A
C586        C587   1.416       .  A
C586        C591   1.447       .  S
C587        C588   1.429       .  A
C587        C594   1.454       .  S
C588        C589   1.425       .  A
C589        C590   1.418       .  A
C590        C593   1.451       .  S
C591        N598   1.156       .  T
C592        N597   1.157       .  T
C593        N595   1.157       .  T
C594        N596   1.158       .  T
C599        C600   1.404       .  A
C599        C604   1.405       .  A
C600        C601   1.416       .  A
C600        C605   1.452       .  S
C601        C602   1.431       .  A
C601        C608   1.448       .  S
C602        C603   1.434       .  A
C603        C604   1.413       .  A
C603        C606   1.454       .  S
C604       C1303   1.453   1_455  S
C606        N611   1.158       .  T
C607       C1300   1.453       .  S
C607        N609   1.157       .  T
C608        N610   1.158       .  T
C613        C614   1.425       .  A
C613        C618   1.429       .  A
C614        C615   1.417       .  A
C614        C619   1.447       .  S
C615        C616   1.413       .  A
C615        C622   1.452       .  S
C616        C617   1.410       .  A
C617        C618   1.412       .  A
C617        C620   1.452       .  S
C618        C621   1.454       .  S
C619        N626   1.158       .  T
C621        N623   1.157       .  T
C622        N624   1.157       .  T
C627        C628   1.417       .  A
C627        C632   1.414       .  A
C628        C629   1.417       .  A
C628        C633   1.453       .  S
C629        C630   1.424       .  A
C629        C636   1.452       .  S
C630        C631   1.419       .  A
C631        C632   1.414       .  A
C631        C634   1.451       .  S
C632        C635   1.446       .  S
C633        N640   1.157       .  T
C634        N639   1.156       .  T
C635        N637   1.156       .  T
C636       N1334   1.158       .  T
N638       C1332   1.158   1_455  T
C641        C642   1.405       .  A
C641        C646   1.407       .  A
C642        C643   1.408       .  A
C642        C647   1.453       .  S
C643        C644   1.427       .  A
C643        C650   1.453       .  S
C644        C645   1.421       .  A
C645        C646   1.416       .  A
C645        C648   1.441       .  S
C646        C649   1.452       .  S
C647        N654   1.157       .  T
C648        N653   1.155       .  T
C649        N651   1.157       .  T
C650        N652   1.157       .  T
C655        C656   1.426       .  A
C655        C660   1.423       .  A
C656        C657   1.411       .  A
C656        C661   1.454       .  S
C657        C658   1.414       .  A
C657        C664   1.452       .  S
C658        C659   1.414   1_556  A
C659        C660   1.416   1_554  A
C659        C662   1.448       .  S
C660        C663   1.450   1_556  S
C661        N668   1.157       .  T
C662        N667   1.156       .  T
C663        N665   1.158       .  T
C664        N666   1.157       .  T
C669        C670   1.421       .  A
C669        C674   1.421       .  A
C670        C671   1.419       .  A
C670        C675   1.452       .  S
C671        C672   1.419       .  A
C671        C678   1.448       .  S
C672        C673   1.418       .  A
C673        C674   1.414       .  A
C673        C676   1.451       .  S
C674        C677   1.453       .  S
C675        N682   1.157       .  T
C676        N681   1.157       .  T
C677       N1375   1.158       .  T
C678        N680   1.157       .  T
N679       C1373   1.158   1_455  T
C683        C684   1.410       .  A
C683        C688   1.406       .  A
C684        C685   1.409       .  A
C684        C689   1.453       .  S
C685        C686   1.419       .  A
C685        C692   1.451   1_556  S
C686        C687   1.421       .  A
C687        C688   1.414       .  A
C687        C690   1.448       .  S
C688        C691   1.452       .  S
C689        N696   1.157   1_556  T
C690        N695   1.157       .  T
C691        N693   1.157       .  T
C692        N694   1.157       .  T
C697        C698   1.531       .  S
C697        C703   1.534       .  S
C697        C701   1.535       .  S
C697       C1003   1.559       .  S
C698        H705   1.086       .  S
C698        C699   1.372       .  D
C699        C700   1.550       .  S
C699       C1020   1.515       .  S
C700        C704   1.548       .  S
C700        C702   1.553       .  S
C700        H706   1.101       .  S
C701        H707   1.082       .  S
C701        C702   1.361       .  D
C702       C1031   1.488       .  S
C703        H708   1.079       .  S
C703        C704   1.374       .  D
C704        C716   1.516       .  S
C709        C710   1.525       .  S
C709        C715   1.524       .  S
C709        C713   1.547       .  S
C709        C961   1.564       .  S
C710        H717   1.086       .  S
C710        C711   1.368       .  D
C711        C712   1.557       .  S
C711        C992   1.515       .  S
C712        C716   1.563       .  S
C712        C714   1.545       .  S
C712        H718   1.102       .  S
C713        H719   1.077       .  S
C713        C714   1.374       .  D
C714        C975   1.511       .  S
C715        H720   1.080       .  S
C715        C716   1.370       .  D
C721        C722   1.547       .  S
C721        C727   1.519       .  S
C721        C725   1.534       .  S
C721        C950   1.567       .  S
C722        H729   1.079       .  S
C722        C723   1.366       .  D
C723        C724   1.539       .  S
C723        C933   1.498       .  S
C724        C728   1.561       .  S
C724        C726   1.560       .  S
C724        H730   1.104       .  S
C725        H731   1.086       .  S
C725        C726   1.373       .  D
C726        C919   1.518       .  S
C727        H732   1.080       .  S
C727        C728   1.370       .  D
C728        C740   1.514       .  S
C733        C734   1.521       .  S
C733        C739   1.534       .  S
C733        C737   1.543       .  S
C733        C894   1.555       .  S
C734        H741   1.087       .  S
C734        C735   1.354       .  D
C735        C736   1.549       .  S
C735        C905   1.482       .  S
C736        C740   1.547       .  S
C736        C738   1.547       .  S
C736        H742   1.102       .  S
C737        H743   1.076       .  S
C737        C738   1.376       .  D
C738        C877   1.509       .  S
C739        H744   1.080       .  S
C739        C740   1.374       .  D
Zr745       O746   2.434       .  S
Zr745       O747   2.438   1_556  S
Zr745      O1096   2.434       .  S
Zr745      O1101   2.383   1_556  S
Zr745      O1103   2.406       .  S
O746        H802   0.990       .  S
O746        H810   0.990       .  S
O747        C767   1.284       .  A
O748      Zr1093   2.444   1_545  S
O748        C769   1.287       .  A
O749       Zr759   2.443   1_556  S
O749        C768   1.287       .  A
O750       Zr758   2.440   1_556  S
O750        C769   1.288       .  A
O751        C768   1.283       .  A
O752       Zr760   2.432       .  S
O752        C767   1.283       .  A
O753      Zr1093   2.379   1_544  S
O753       Zr758   2.388       .  S
O753      Zr1108   2.370   1_545  S
O754       Zr759   2.384       .  S
O754        H789   0.965       .  S
O755      Zr1093   2.404   1_545  S
O755       Zr758   2.397   1_556  S
O755        H792   0.966       .  S
O756       Zr759   2.385   1_556  S
O756      Zr1123   2.395       .  S
Zr757       O782   2.441       .  S
Zr757       O776   2.443       .  S
Zr757      O1132   2.447   1_545  S
Zr757      O1111   2.408   1_545  S
Zr757       O765   2.384   1_655  S
Zr757       O766   2.382   1_545  S
Zr758       O777   2.437   1_554  S
Zr758       O770   2.433       .  S
Zr758       O771   2.436       .  S
Zr758       O764   2.394       .  S
Zr759       O761   2.432   1_554  S
Zr759       O783   2.439       .  S
Zr759       O785   2.428       .  S
Zr759       O763   2.388       .  S
Zr759      O1114   2.385       .  S
Zr760      O1110   2.437       .  S
Zr760      O1101   2.370       .  S
Zr760      O1112   2.402       .  S
O761        H798   0.990       .  S
O762      Zr1108   2.437   1_545  S
O762        H793   0.990       .  S
O762        H807   0.990       .  S
O763      Zr1105   2.405       .  S
O764      Zr1108   2.401   1_545  S
O764        H790   0.966       .  S
O765       Zr775   2.378   1_454  S
O766      Zr1107   2.388       .  S
O766       Zr775   2.373   1_564  S
O766       H1139   0.966       .  S
C767        C947   1.485       .  S
C768       C1017   1.508       .  S
C769       C1034   1.500       .  S
O770        H806   0.990       .  S
O771        C773   1.285       .  A
O772        C773   1.285       .  A
C773        C922   1.483       .  S
O774       Zr775   2.435       .  S
O774        H803   0.990   1_545  S
Zr775      O1127   2.441   1_545  S
Zr775       O780   2.436       .  S
Zr775      O1104   2.393   1_545  S
O776        C781   1.287   1_554  A
O777        H794   0.990       .  S
O777        H809   0.990       .  S
O779      Zr1123   2.440       .  S
O779       H1147   0.991       .  S
O779        H808   0.990       .  S
O780        C781   1.286       .  A
C781       C1006   1.501       .  S
O782        H801   0.990       .  S
O782        H805   0.990       .  S
O783        H797   0.990       .  S
O783        H804   0.990       .  S
O784      Zr1105   2.442       .  S
O784        C788   1.287       .  A
O785        C788   1.284       .  A
O786        H796   0.990       .  S
C788        C936   1.517       .  S
H791       O1114   0.966       .  S
H799       O1127   0.990       .  S
Zr811       O812   2.435       .  S
Zr811       O813   2.436       .  S
Zr811      O1162   2.429   1_545  S
Zr811       O819   2.379   1_545  S
Zr811       O820   2.383   1_655  S
Zr811      O1169   2.404   1_545  S
O812        H868   0.990       .  S
O812        H876   0.990       .  S
O813        C833   1.285       .  A
O814      Zr1159   2.432       .  S
O814        C835   1.284       .  A
O815       Zr825   2.436       .  S
O815        C834   1.287       .  A
O816       Zr824   2.445       .  S
O816        C835   1.287       .  A
O817        C834   1.288       .  A
O818       Zr826   2.439       .  S
O818        C833   1.286       .  A
O819      Zr1172   2.389       .  S
O819       Zr826   2.376   1_565  S
O820       Zr826   2.365   1_455  S
O821      Zr1159   2.402       .  S
O821       Zr824   2.392       .  S
O821        H858   0.966       .  S
O822       Zr825   2.387       .  S
O822      Zr1189   2.393   1_545  S
Zr823       O848   2.444       .  S
Zr823       O842   2.432       .  S
Zr823      O1198   2.435       .  S
Zr823      O1177   2.397       .  S
Zr823      O1180   2.387       .  S
Zr824       O843   2.435       .  S
Zr824       O836   2.430       .  S
Zr824       O837   2.442       .  S
Zr824      O1167   2.390       .  S
Zr824       O830   2.401       .  S
Zr824       O831   2.385       .  S
Zr825       O827   2.434       .  S
Zr825       O849   2.433       .  S
Zr825       O851   2.422       .  S
Zr825       O829   2.386       .  S
Zr825       O832   2.389       .  S
Zr826       O853   2.434       .  S
Zr826      O1176   2.434   1_545  S
Zr826      O1178   2.400   1_545  S
O827        H864   0.990       .  S
O828      Zr1174   2.433       .  S
O828       H1207   0.990       .  S
O828        H873   0.989       .  S
O829      Zr1171   2.401   1_545  S
O830      Zr1174   2.393       .  S
O830        H856   0.966       .  S
O832      Zr1171   2.385   1_545  S
O832      Zr1189   2.367   1_545  S
O832        H857   0.966       .  S
C833        C964   1.499       .  S
C834        C908   1.501       .  S
C835        C880   1.515       .  S
O836        H872   0.990       .  S
O837        C839   1.288       .  A
O838        C839   1.285       .  A
C839        C978   1.505       .  S
O840       H1217   0.990   1_655  S
Zr841      O1193   2.439       .  S
Zr841       O846   2.433       .  S
Zr841      O1170   2.397       .  S
Zr841      O1180   2.370       .  S
O842        C847   1.284       .  A
O843        H860   0.990       .  S
O843        H875   0.990       .  S
O844        H861   0.990       .  S
O845      Zr1189   2.438   1_545  S
O845        H865   0.990       .  S
O845        H874   0.990       .  S
O846        C847   1.285       .  A
C847        C891   1.492       .  S
O848       H1215   0.990       .  S
O849        H863   0.990       .  S
O849        H870   0.989       .  S
O850      Zr1171   2.439   1_545  S
O850        C854   1.285       .  A
O851        C854   1.283       .  A
O853       H1214   0.990   1_655  S
C854        C989   1.476       .  S
H859       O1176   0.990   1_545  S
H866       O1201   0.990       .  S
H867       O1196   0.990       .  S
H869       O1188   0.990       .  S
C877        C878   1.412       .  A
C877        C882   1.415       .  A
C878        C879   1.411       .  A
C878        C883   1.454       .  S
C879        C880   1.426       .  A
C879       C1234   1.452       .  S
C880        C881   1.425       .  A
C881        C882   1.418       .  A
C881        C884   1.452       .  S
C882        C885   1.449       .  S
C883        N890   1.157       .  T
C884        N889   1.157       .  T
C885        N887   1.157       .  T
C886       C1227   1.453   1_545  S
C886        N888   1.158       .  T
C891        C892   1.409       .  A
C891        C896   1.413       .  A
C892        C893   1.408       .  A
C892        C897   1.453       .  S
C893        C894   1.429       .  A
C893        C900   1.456       .  S
C894        C895   1.426       .  A
C895        C896   1.418       .  A
C895        C898   1.448       .  S
C896        C899   1.452       .  S
C897        N904   1.157       .  T
C898        N903   1.158       .  T
C899        N901   1.157       .  T
C900        N902   1.158       .  T
C905        C906   1.405       .  A
C905        C910   1.409       .  A
C906        C907   1.413       .  A
C906        C911   1.452       .  S
C907        C908   1.422       .  A
C907        C914   1.448       .  S
C908        C909   1.421       .  A
C909        C910   1.408       .  A
C909        C912   1.450       .  S
C910        C913   1.455       .  S
C911        N918   1.157       .  T
C912        N917   1.156       .  T
C913        N915   1.157       .  T
C914        N916   1.157       .  T
C919        C920   1.421       .  A
C919        C924   1.427       .  A
C920        C921   1.418       .  A
C920        C925   1.442       .  S
C921        C922   1.409       .  A
C921        C928   1.453       .  S
C922        C923   1.405       .  A
C923        C924   1.409       .  A
C923        C926   1.451       .  S
C924        C927   1.454       .  S
C925        N932   1.156       .  T
C927        N929   1.157       .  T
C928        N930   1.157       .  T
C933        C934   1.407       .  A
C933        C938   1.412       .  A
C934        C935   1.412       .  A
C934        C939   1.447       .  S
C935        C936   1.428       .  A
C935        C942   1.454       .  S
C936        C937   1.425       .  A
C937        C938   1.416       .  A
C937       C1288   1.451       .  S
C938        C941   1.452       .  S
C939        N946   1.156       .  T
C940       C1285   1.450       .  S
C940        N945   1.157   1_565  T
C941        N943   1.157       .  T
C942        N944   1.157       .  T
C947        C948   1.404       .  A
C947        C952   1.404       .  A
C948        C949   1.417       .  A
C948        C953   1.453       .  S
C949        C950   1.435       .  A
C949        C956   1.448       .  S
C950        C951   1.434       .  A
C951        C952   1.414       .  A
C951        C954   1.453       .  S
C953       N1308   1.156       .  T
C954        N959   1.158       .  T
C955        N957   1.157   1_455  T
C956        N958   1.158       .  T
N960       C1301   1.157   1_545  T
C961        C962   1.426       .  A
C961        C966   1.428       .  A
C962        C963   1.420       .  A
C962        C967   1.448       .  S
C963        C964   1.415       .  A
C963        C970   1.452       .  S
C964        C965   1.411       .  A
C965        C966   1.412       .  A
C965        C968   1.452       .  S
C966        C969   1.454       .  S
C967        N974   1.158       .  T
C968       N1321   1.157   1_545  T
C969        N971   1.157       .  T
C970        N972   1.157       .  T
N973       C1316   1.157       .  T
C975        C976   1.417       .  A
C975        C980   1.418       .  A
C976        C977   1.414       .  A
C976        C981   1.452       .  S
C977        C978   1.420       .  A
C977        C984   1.452       .  S
C978        C979   1.416       .  A
C979        C980   1.413       .  A
C979        C982   1.453       .  S
C980        C983   1.446       .  S
C981        N988   1.157       .  T
C982        N987   1.157       .  T
C983        N985   1.156       .  T
C989        C990   1.404       .  A
C989        C994   1.407       .  A
C990        C991   1.407       .  A
C990        C995   1.453       .  S
C991        C992   1.427       .  A
C991        C998   1.453       .  S
C992        C993   1.420       .  A
C993        C994   1.416       .  A
C993        C996   1.442       .  S
C994        C997   1.452       .  S
C995       N1002   1.157       .  T
C996       N1001   1.156       .  T
C997        N999   1.157       .  T
C998       N1000   1.157       .  T
C1003      C1004   1.426       .  A
C1003      C1008   1.424       .  A
C1004      C1005   1.413       .  A
C1004      C1009   1.453       .  S
C1005      C1006   1.413       .  A
C1005      C1012   1.452       .  S
C1006      C1007   1.414   1_556  A
C1007      C1008   1.417   1_554  A
C1007      C1010   1.448       .  S
C1008      C1011   1.450   1_556  S
C1009      N1016   1.157       .  T
C1010      N1015   1.156       .  T
C1011      N1013   1.158       .  T
C1012      N1014   1.157   1_655  T
C1017      C1018   1.420       .  A
C1017      C1022   1.421       .  A
C1018      C1019   1.418       .  A
C1018      C1023   1.452       .  S
C1019      C1020   1.419       .  A
C1019      C1026   1.448       .  S
C1020      C1021   1.417       .  A
C1021      C1022   1.411       .  A
C1021      C1024   1.451       .  S
C1022      C1025   1.454       .  S
C1023      N1030   1.157       .  T
C1024      N1029   1.156       .  T
C1026      N1028   1.157       .  T
C1031      C1032   1.411       .  A
C1031      C1036   1.406       .  A
C1032      C1033   1.411       .  A
C1032      C1037   1.453       .  S
C1033      C1034   1.419       .  A
C1033      C1040   1.451   1_556  S
C1034      C1035   1.421       .  A
C1035      C1036   1.414       .  A
C1035      C1038   1.448       .  S
C1036      C1039   1.452       .  S
C1037      N1044   1.157   1_556  T
C1038      N1043   1.157       .  T
C1039      N1041   1.157       .  T
C1040      N1042   1.157       .  T
C1045      C1046   1.533       .  S
C1045      C1051   1.533       .  S
C1045      C1049   1.533       .  S
C1045      C1351   1.556       .  S
C1046      H1053   1.086       .  S
C1046      C1047   1.372       .  D
C1047      C1048   1.548       .  S
C1047      C1368   1.512       .  S
C1048      C1052   1.546       .  S
C1048      C1050   1.551       .  S
C1048      H1054   1.103       .  S
C1049      H1055   1.082       .  S
C1049      C1050   1.360       .  D
C1050      C1379   1.483       .  S
C1051      H1056   1.079       .  S
C1051      C1052   1.375       .  D
C1052      C1064   1.514       .  S
C1057      C1058   1.523       .  S
C1057      C1063   1.520       .  S
C1057      C1061   1.550       .  S
C1057      C1309   1.559       .  S
C1058      H1065   1.087       .  S
C1058      C1059   1.365       .  D
C1059      C1060   1.556       .  S
C1059      C1340   1.511       .  S
C1060      C1064   1.565       .  S
C1060      C1062   1.544       .  S
C1060      H1066   1.103       .  S
C1061      H1067   1.077       .  S
C1061      C1062   1.374       .  D
C1062      C1323   1.511       .  S
C1063      H1068   1.079       .  S
C1063      C1064   1.369       .  D
C1069      C1070   1.547       .  S
C1069      C1075   1.519       .  S
C1069      C1073   1.535       .  S
C1069      C1298   1.564       .  S
C1070      H1077   1.080       .  S
C1070      C1071   1.367       .  D
C1071      C1072   1.539       .  S
C1071      C1281   1.498       .  S
C1072      C1076   1.565       .  S
C1072      C1074   1.563       .  S
C1072      H1078   1.103       .  S
C1073      H1079   1.085       .  S
C1073      C1074   1.371       .  D
C1074      C1267   1.521       .  S
C1075      H1080   1.080       .  S
C1075      C1076   1.368       .  D
C1076      C1088   1.520       .  S
C1081      C1082   1.519       .  S
C1081      C1087   1.536       .  S
C1081      C1085   1.543       .  S
C1081      C1242   1.556       .  S
C1082      H1089   1.087       .  S
C1082      C1083   1.355       .  D
C1083      C1084   1.553       .  S
C1083      C1253   1.484       .  S
C1084      C1088   1.547       .  S
C1084      C1086   1.553       .  S
C1084      H1090   1.101       .  S
C1085      H1091   1.078       .  S
C1085      C1086   1.376       .  D
C1086      C1225   1.517       .  S
C1087      H1092   1.079       .  S
C1087      C1088   1.377       .  D
Zr1093     O1094   2.431       .  S
Zr1093     O1095   2.431   1_556  S
O1094      H1150   0.990       .  S
O1094      H1158   0.989       .  S
O1095      C1115   1.283       .  A
O1096      C1117   1.285       .  A
O1097     Zr1107   2.442   1_556  S
O1097      C1116   1.287       .  A
O1098     Zr1106   2.440   1_556  S
O1098      C1117   1.287       .  A
O1099      C1116   1.285       .  A
O1100     Zr1108   2.435       .  S
O1100      C1115   1.284       .  A
O1101     Zr1106   2.388       .  S
O1102     Zr1107   2.381       .  S
O1102      H1137   0.965       .  S
O1103     Zr1106   2.397   1_556  S
O1103      H1140   0.966       .  S
O1104     Zr1107   2.385   1_556  S
Zr1105     O1130   2.439       .  S
Zr1105     O1124   2.439       .  S
Zr1105     O1113   2.384   1_655  S
Zr1105     O1114   2.380       .  S
Zr1106     O1125   2.437   1_554  S
Zr1106     O1118   2.432       .  S
Zr1106     O1119   2.442       .  S
Zr1106     O1112   2.393       .  S
Zr1107     O1109   2.432   1_554  S
Zr1107     O1131   2.438       .  S
Zr1107     O1133   2.422       .  S
Zr1107     O1111   2.392       .  S
O1109      H1146   0.990       .  S
O1110      H1141   0.990       .  S
O1110      H1155   0.990       .  S
O1112      H1138   0.966       .  S
O1113     Zr1123   2.372   1_454  S
O1114     Zr1123   2.373   1_554  S
C1115      C1295   1.483       .  S
C1116      C1365   1.513       .  S
C1117      C1382   1.494       .  S
O1118      H1154   0.990       .  S
O1119      C1121   1.287       .  A
O1120      C1121   1.284       .  A
C1121      C1270   1.485       .  S
O1122     Zr1123   2.434       .  S
O1122      H1151   0.990       .  S
Zr1123     O1128   2.433       .  S
O1124      C1129   1.286   1_554  A
O1125      H1142   0.990       .  S
O1125      H1157   0.990       .  S
O1127      H1156   0.989       .  S
O1128      C1129   1.285       .  A
C1129      C1354   1.499       .  S
O1130      H1149   0.990       .  S
O1130      H1153   0.990       .  S
O1131      H1145   0.990       .  S
O1131      H1152   0.990       .  S
O1132      C1136   1.287       .  A
O1133      C1136   1.282       .  A
O1134      H1144   0.990       .  S
C1136      C1284   1.517       .  S
Zr1159     O1160   2.434       .  S
Zr1159     O1161   2.435       .  S
Zr1159     O1167   2.377       .  S
Zr1159     O1168   2.380       .  S
O1160      H1216   0.990       .  S
O1160      H1224   0.990       .  S
O1161      C1181   1.285       .  A
O1162      C1183   1.283       .  A
O1163     Zr1173   2.436       .  S
O1163      C1182   1.287       .  A
O1164     Zr1172   2.463       .  S
O1164      C1183   1.291       .  A
O1165      C1182   1.287       .  A
O1166     Zr1174   2.433       .  S
O1166      C1181   1.285       .  A
O1167     Zr1174   2.374       .  S
O1168     Zr1174   2.369       .  S
O1169     Zr1172   2.393       .  S
O1169      H1206   0.966       .  S
O1170     Zr1173   2.388       .  S
Zr1171     O1196   2.442       .  S
Zr1171     O1190   2.436       .  S
Zr1172     O1191   2.429       .  S
Zr1172     O1184   2.433       .  S
Zr1172     O1185   2.440       .  S
Zr1172     O1178   2.400       .  S
Zr1172     O1179   2.390       .  S
Zr1173     O1175   2.435       .  S
Zr1173     O1197   2.429       .  S
Zr1173     O1199   2.423       .  S
Zr1173     O1177   2.389       .  S
Zr1173     O1180   2.387       .  S
Zr1174     O1201   2.434       .  S
O1175      H1212   0.990       .  S
O1176      H1221   0.988       .  S
O1178      H1204   0.966       .  S
O1180      H1205   0.967       .  S
C1181      C1312   1.496       .  S
C1182      C1256   1.498       .  S
C1183      C1228   1.515       .  S
O1184      H1220   0.990       .  S
O1185      C1187   1.287       .  A
O1186      C1187   1.285       .  A
C1187      C1326   1.516       .  S
Zr1189     O1194   2.438       .  S
O1190      C1195   1.285       .  A
O1191      H1208   0.990       .  S
O1191      H1223   0.989       .  S
O1192      H1209   0.989       .  S
O1193      H1213   0.990       .  S
O1193      H1222   0.989       .  S
O1194      C1195   1.286       .  A
C1195      C1239   1.496       .  S
O1197      H1211   0.990       .  S
O1197      H1218   0.989       .  S
O1198      C1202   1.284       .  A
O1199      C1202   1.283       .  A
C1202      C1337   1.475       .  S
C1225      C1226   1.418       .  A
C1225      C1230   1.418       .  A
C1226      C1227   1.414       .  A
C1226      C1231   1.453       .  S
C1227      C1228   1.425       .  A
C1228      C1229   1.419       .  A
C1229      C1230   1.418       .  A
C1229      C1232   1.450       .  S
C1230      C1233   1.449       .  S
C1231      N1238   1.157       .  T
C1232      N1237   1.157       .  T
C1233      N1235   1.157       .  T
C1234      N1236   1.158       .  T
C1239      C1240   1.411       .  A
C1239      C1244   1.414       .  A
C1240      C1241   1.410       .  A
C1240      C1245   1.452       .  S
C1241      C1242   1.426       .  A
C1241      C1248   1.454       .  S
C1242      C1243   1.424       .  A
C1243      C1244   1.418       .  A
C1243      C1246   1.449       .  S
C1244      C1247   1.451       .  S
C1245      N1252   1.157       .  T
C1246      N1251   1.158       .  T
C1247      N1249   1.157       .  T
C1248      N1250   1.158       .  T
C1253      C1254   1.407       .  A
C1253      C1258   1.410       .  A
C1254      C1255   1.413       .  A
C1254      C1259   1.452       .  S
C1255      C1256   1.421       .  A
C1255      C1262   1.448       .  S
C1256      C1257   1.419       .  A
C1257      C1258   1.408       .  A
C1257      C1260   1.450       .  S
C1258      C1261   1.454       .  S
C1259      N1266   1.157       .  T
C1260      N1265   1.157       .  T
C1261      N1263   1.157       .  T
C1262      N1264   1.157       .  T
C1267      C1268   1.421       .  A
C1267      C1272   1.429       .  A
C1268      C1269   1.417       .  A
C1268      C1273   1.441       .  S
C1269      C1270   1.408       .  A
C1269      C1276   1.452       .  S
C1270      C1271   1.405       .  A
C1271      C1272   1.410       .  A
C1271      C1274   1.451       .  S
C1272      C1275   1.453       .  S
C1273      N1280   1.155       .  T
C1275      N1277   1.158       .  T
C1276      N1278   1.157       .  T
C1281      C1282   1.409       .  A
C1281      C1286   1.411       .  A
C1282      C1283   1.413       .  A
C1282      C1287   1.447       .  S
C1283      C1284   1.428       .  A
C1283      C1290   1.455       .  S
C1284      C1285   1.424       .  A
C1285      C1286   1.415       .  A
C1286      C1289   1.452       .  S
C1287      N1294   1.156       .  T
C1288      N1293   1.158       .  T
C1289      N1291   1.157       .  T
C1290      N1292   1.158       .  T
C1295      C1296   1.405       .  A
C1295      C1300   1.403       .  A
C1296      C1297   1.416       .  A
C1296      C1301   1.453       .  S
C1297      C1298   1.433       .  A
C1297      C1304   1.448       .  S
C1298      C1299   1.434       .  A
C1299      C1300   1.412       .  A
C1299      C1302   1.453       .  S
C1302      N1307   1.158       .  T
C1303      N1305   1.157       .  T
C1304      N1306   1.158       .  T
C1309      C1310   1.424       .  A
C1309      C1314   1.429       .  A
C1310      C1311   1.417       .  A
C1310      C1315   1.447       .  S
C1311      C1312   1.414       .  A
C1311      C1318   1.452       .  S
C1312      C1313   1.411       .  A
C1313      C1314   1.411       .  A
C1313      C1316   1.452       .  S
C1314      C1317   1.455       .  S
C1315      N1322   1.158       .  T
C1317      N1319   1.158       .  T
C1318      N1320   1.157       .  T
C1323      C1324   1.415       .  A
C1323      C1328   1.415       .  A
C1324      C1325   1.418       .  A
C1324      C1329   1.453       .  S
C1325      C1326   1.425       .  A
C1325      C1332   1.451       .  S
C1326      C1327   1.422       .  A
C1327      C1328   1.415       .  A
C1327      C1330   1.454       .  S
C1328      C1331   1.446       .  S
C1329      N1336   1.157       .  T
C1330      N1335   1.157       .  T
C1331      N1333   1.156       .  T
C1337      C1338   1.404       .  A
C1337      C1342   1.408       .  A
C1338      C1339   1.406       .  A
C1338      C1343   1.454       .  S
C1339      C1340   1.428       .  A
C1339      C1346   1.454       .  S
C1340      C1341   1.419       .  A
C1341      C1342   1.414       .  A
C1341      C1344   1.444       .  S
C1342      C1345   1.452       .  S
C1343      N1350   1.157       .  T
C1344      N1349   1.156       .  T
C1345      N1347   1.157       .  T
C1346      N1348   1.157       .  T
C1351      C1352   1.424       .  A
C1351      C1356   1.423       .  A
C1352      C1353   1.412       .  A
C1352      C1357   1.452       .  S
C1353      C1354   1.414       .  A
C1353      C1360   1.452       .  S
C1354      C1355   1.414   1_556  A
C1355      C1356   1.416   1_554  A
C1355      C1358   1.448       .  S
C1356      C1359   1.450   1_556  S
C1357      N1364   1.157       .  T
C1358      N1363   1.156       .  T
C1359      N1361   1.158       .  T
C1360      N1362   1.157   1_655  T
C1365      C1366   1.422       .  A
C1365      C1370   1.423       .  A
C1366      C1367   1.418       .  A
C1366      C1371   1.452       .  S
C1367      C1368   1.417       .  A
C1367      C1374   1.448       .  S
C1368      C1369   1.415       .  A
C1369      C1370   1.412       .  A
C1369      C1372   1.451       .  S
C1370      C1373   1.453       .  S
C1371      N1378   1.157       .  T
C1372      N1377   1.156       .  T
C1374      N1376   1.157       .  T
C1379      C1380   1.410       .  A
C1379      C1384   1.406       .  A
C1380      C1381   1.407       .  A
C1380      C1385   1.453       .  S
C1381      C1382   1.418       .  A
C1381      C1388   1.451   1_556  S
C1382      C1383   1.421       .  A
C1383      C1384   1.414       .  A
C1383      C1386   1.448       .  S
C1384      C1387   1.452       .  S
C1385      N1392   1.157   1_556  T
C1386      N1391   1.157       .  T
C1387      N1389   1.157       .  T
C1388      N1390   1.157       .  T
