geometry optimzed in LAMMPS
_audit_creation_date              2020-12-01 
_audit_creation_method            'lammps2cif' 
_symmetry_space_group_name_H-M    'P1' 
_symmetry_Int_Tables_number       1 
_symmetry_cell_setting            triclinic 
loop_ 
_symmetry_equiv_pos_as_xyz 
  x,y,z 
_cell_length_a                    33.0425624 
_cell_length_b                    32.80469402682186 
_cell_length_c                    32.89992581160514 
_cell_angle_alpha                 90.02351907345083 
_cell_angle_beta                  90.18224711633658 
_cell_angle_gamma                 90.07477530009542 
loop_ 
_atom_site_label 
_atom_site_type_symbol 
_atom_site_fract_x 
_atom_site_fract_y 
_atom_site_fract_z 
_atom_site_charge 
C1          C  0.37293416  0.37420702  0.37344089     0.46200
H2          H  0.39165359  0.39468902  0.39229200    -0.02800
C3          C  0.32934245  0.32775573  0.32850405     0.46200
H4          H  0.31056585  0.30758947  0.30892301    -0.02800
C5          C  0.32772939  0.38107680  0.38049519    -0.16500
C6          C  0.38169036  0.38052775  0.32822196    -0.16300
C7          C  0.38032793  0.32917000  0.38238592    -0.16700
C8          C  0.30410002  0.35704060  0.35591725    -0.16600
C9          C  0.35793219  0.35631275  0.30395513    -0.16200
C10         C  0.35751114  0.30410620  0.35842227    -0.16500
C11         C  0.37204594  0.05874800  0.37345377     0.46200
H12         H  0.39130256  0.03938103  0.39278334    -0.02800
C13         C  0.32852955  0.10546207  0.32889902     0.46200
H14         H  0.30934216  0.12575911  0.30993564    -0.02800
C15         C  0.32690929  0.05112584  0.37993716    -0.16500
C16         C  0.37981200  0.10382099  0.38244750    -0.16300
C17         C  0.37961724  0.05146144  0.32812048    -0.16700
C18         C  0.30334292  0.07637408  0.35658646    -0.16600
C19         C  0.35722197  0.12892263  0.35845620    -0.16200
C20         C  0.35661162  0.07656917  0.30395213    -0.16500
C21         C  0.05980355  0.05974274  0.37311810     0.46200
H22         H  0.04132931  0.04006510  0.39287724    -0.02800
C23         C  0.10385622  0.10538117  0.32806868     0.46200
H24         H  0.12282094  0.12523163  0.30846263    -0.02800
C25         C  0.10510243  0.05215167  0.37998782    -0.16500
C26         C  0.05133245  0.05279464  0.32805541    -0.16300
C27         C  0.05134470  0.10490326  0.38047818    -0.16700
C28         C  0.12884197  0.07677239  0.35637598    -0.16600
C29         C  0.07524384  0.07633802  0.30370438    -0.16200
C30         C  0.07515090  0.12954627  0.35701337    -0.16500
C31         C  0.06056123  0.37509381  0.37330401     0.46200
H32         H  0.04176259  0.39468579  0.39277892    -0.02800
C33         C  0.10410807  0.32913221  0.32823549     0.46200
H34         H  0.12285873  0.30921794  0.30852481    -0.02800
C35         C  0.10571851  0.38070840  0.38207200    -0.16500
C36         C  0.05080103  0.32997062  0.37943490    -0.16300
C37         C  0.05415644  0.38407279  0.32818384    -0.16700
C38         C  0.12937422  0.35716387  0.35716517    -0.16600
C39         C  0.07454882  0.30509404  0.35633574    -0.16200
C40         C  0.07666143  0.35914376  0.30383562    -0.16500
C41         C  0.06134547  0.37531590  0.05918651     0.46200
H42         H  0.04209607  0.39440516  0.03960134    -0.02800
C43         C  0.10473780  0.32978262  0.10489583     0.46200
H44         H  0.12376894  0.31036101  0.12491189    -0.02800
C45         C  0.10639764  0.38400920  0.05389034    -0.16500
C46         C  0.05261621  0.38237397  0.10419973    -0.16300
C47         C  0.05480749  0.33003453  0.04993343    -0.16700
C48         C  0.12999002  0.35945979  0.07792836    -0.16600
C49         C  0.07511963  0.35778155  0.12887925    -0.16200
C50         C  0.07796385  0.30542569  0.07423429    -0.16500
C51         C  0.37331070  0.37360954  0.05937028     0.46200
H52         H  0.39164974  0.39354352  0.03974591    -0.02800
C53         C  0.32970660  0.32646838  0.10323851     0.46200
H54         H  0.31089003  0.30605368  0.12237690    -0.02800
C55         C  0.38175357  0.32866677  0.05088236    -0.16500
C56         C  0.38194642  0.37950256  0.10458769    -0.16300
C57         C  0.32808477  0.38153685  0.05305267    -0.16700
C58         C  0.35811031  0.30331131  0.07349549    -0.16600
C59         C  0.35832955  0.35480084  0.12852047    -0.16200
C60         C  0.30448013  0.35605612  0.07605775    -0.16500
C61         C  0.06026275  0.05977449  0.05911999     0.46200
H62         H  0.04149388  0.03958654  0.04001770    -0.02800
C63         C  0.10390799  0.10448107  0.10565915     0.46200
H64         H  0.12306486  0.12367095  0.12580117    -0.02800
C65         C  0.10548217  0.05293907  0.05205148    -0.16500
C66         C  0.05340280  0.10506286  0.05098478    -0.16300
C67         C  0.05101650  0.05257051  0.10403038    -0.16700
C68         C  0.12912099  0.07627235  0.07726653    -0.16600
C69         C  0.07641739  0.12945882  0.07595693    -0.16200
C70         C  0.07460783  0.07570787  0.12904964    -0.16500
C71         C  0.37245532  0.05874818  0.05891466     0.46200
H72         H  0.39130431  0.03917160  0.03945656    -0.02800
C73         C  0.32890319  0.10483523  0.10379845     0.46200
H74         H  0.30999092  0.12512706  0.12295882    -0.02800
C75         C  0.32727156  0.05409751  0.04944944    -0.16500
C76         C  0.37808434  0.04919499  0.10411034    -0.16300
C77         C  0.38291757  0.10369021  0.05330945    -0.16700
C78         C  0.30368949  0.07811839  0.07392852    -0.16600
C79         C  0.35510397  0.07395090  0.12842949    -0.16200
C80         C  0.35931344  0.12848376  0.07653285    -0.16500
O81         O  0.99437879  0.01503761  0.08428900    -0.71000
O82         O  0.43793942  0.41734780  0.08503501    -0.71300
O83         O  0.41747239  0.99418444  0.08452540    -0.71100
O84         O  0.01427636  0.43805237  0.08464565    -0.71100
O85         O  0.00511531  0.42162146  0.14756957    -0.71100
O86         O  0.42720120  0.01111130  0.14729601    -0.71100
O87         O  0.42185010  0.42720138  0.14785629    -0.71100
O88         O  0.01088161  0.00555275  0.14724647    -0.71200
V89         V  0.46600206  0.46619996  0.08569369     1.35200
V90         V  0.46628459  0.46643929  0.14781557     1.35200
C91         C  0.01708758  0.02402335  0.11368898     0.78200
C92         C  0.41560390  0.40831618  0.11452475     0.78200
C93         C  0.40801189  0.01651267  0.11396432     0.78100
C94         C  0.02350218  0.41555444  0.11405352     0.78100
O95         O  0.01113131  0.00599988  0.28450255    -0.71000
O96         O  0.42193478  0.42778546  0.28475164    -0.71300
O97         O  0.42760212  0.01207936  0.28463148    -0.71100
O98         O  0.00552693  0.42233027  0.28473624    -0.71100
O99         O  0.01495592  0.43911251  0.34761154    -0.71100
O100        O  0.41812510  0.99543605  0.34738627    -0.71100
O101        O  0.43826780  0.41830677  0.34764386    -0.71100
O102        O  0.99475858  0.01588010  0.34732415    -0.71200
V103        V  0.46646588  0.46703134  0.28430849     1.35200
V104        V  0.46652000  0.46716760  0.34640877     1.35200
C105        C  0.01741521  0.02457792  0.31800185     0.78200
C106        C  0.41565272  0.40918527  0.31824280     0.78200
C107        C  0.40890898  0.01808509  0.31804944     0.78100
C108        C  0.02446392  0.41680541  0.31817901     0.78100
O109        O  0.08692518  0.99511722  0.41758719    -0.71000
O110        O  0.08751860  0.44004923  0.01563712    -0.71300
O111        O  0.08729216  0.01661082  0.99424587    -0.71100
O112        O  0.08710941  0.41822783  0.43900919    -0.71100
O113        O  0.14932022  0.42850881  0.42187148    -0.71100
O114        O  0.14945480  0.00630929  0.01193043    -0.71100
O115        O  0.14972360  0.42259169  0.00553796    -0.71100
O116        O  0.14913365  0.01280157  0.42773723    -0.71200
V117        V  0.08819525  0.46748261  0.46661233     1.35200
V118        V  0.14988378  0.46761430  0.46668974     1.35200
C119        C  0.11578020  0.01837996  0.40874178     0.78200
C120        C  0.11661158  0.41719309  0.02469200     0.78200
C121        C  0.11611763  0.02504626  0.01775752     0.78100
C122        C  0.11610315  0.40938213  0.41604143     0.78100
O123        O  0.43842062  0.08394854  0.01498492    -0.71000
O124        O  0.99564414  0.08478847  0.41839110    -0.71300
O125        O  0.01517620  0.08500900  0.99531393    -0.71100
O126        O  0.41887374  0.08383816  0.43777544    -0.71100
O127        O  0.42750656  0.14723410  0.42198305    -0.71100
O128        O  0.00533213  0.14803238  0.01159245    -0.71100
O129        O  0.01118937  0.14810749  0.42783282    -0.71100
O130        O  0.42211152  0.14713655  0.00577969    -0.71200
V131        V  0.46701719  0.08552262  0.46663289     1.35200
V132        V  0.46651250  0.14789256  0.46674931     1.35200
C133        C  0.41616923  0.11348763  0.02432828     0.78200
C134        C  0.01779959  0.11454368  0.40935141     0.78200
C135        C  0.02423059  0.11469239  0.01765805     0.78100
C136        C  0.40922538  0.11348352  0.41567309     0.78100
O137        O  0.28330160  0.01132082  0.42735338    -0.71000
O138        O  0.28412179  0.42079550  0.00503830    -0.71300
O139        O  0.28371702  0.00517287  0.01116083    -0.71100
O140        O  0.28373486  0.42739495  0.42105663    -0.71100
O141        O  0.34596213  0.41726000  0.43847738    -0.71100
O142        O  0.34577891  0.01569995  0.99342581    -0.71100
O143        O  0.34621828  0.43877528  0.01530179    -0.71100
O144        O  0.34548404  0.99398833  0.41704272    -0.71200
V145        V  0.28322454  0.46611005  0.46620280     1.35200
V146        V  0.34488647  0.46640386  0.46611474     1.35200
C147        C  0.31646171  0.01711174  0.40832815     0.78200
C148        C  0.31743167  0.41537574  0.02417003     0.78200
C149        C  0.31682995  0.02468751  0.01633917     0.78100
C150        C  0.31710643  0.40880760  0.41499638     0.78100
O151        O  0.41892282  0.34941849  0.43750523    -0.71000
O152        O  0.01526770  0.34989808  0.99485546    -0.71300
O153        O  0.99552332  0.34985862  0.41786358    -0.71100
O154        O  0.43825742  0.34919558  0.01437092    -0.71100
O155        O  0.42265330  0.28588869  0.00455846    -0.71100
O156        O  0.01178690  0.28668469  0.42715880    -0.71100
O157        O  0.00624312  0.28670060  0.01093550    -0.71100
O158        O  0.42841122  0.28621570  0.42132681    -0.71200
V159        V  0.46702568  0.34848565  0.46618431     1.35200
V160        V  0.46733357  0.28610646  0.46603328     1.35200
C161        C  0.40966036  0.31968455  0.41536650     0.79400
C162        C  0.02492861  0.32029310  0.01698175     0.78200
C163        C  0.01772774  0.32027639  0.40856396     0.78100
C164        C  0.41585883  0.31943202  0.02286716     0.78100
C165        C  0.19429129  0.08304066  0.03926198    -0.20600
C166        C  0.17384268  0.07736855  0.07618505    -0.08600
C167        C  0.19629961  0.07395965  0.11234242     0.30200
C168        C  0.23854511  0.07425137  0.11121037    -0.20600
C169        C  0.25897634  0.07824458  0.07413294    -0.08600
C170        C  0.23657322  0.08363305  0.03826410     0.30200
F171        F  0.25562389  0.09076897  0.00262278    -0.19200
H172        H  0.17749806  0.08753740  0.01129166     0.18600
H173        H  0.25538286  0.07074060  0.13930507     0.18600
F174        F  0.17746011  0.06938072  0.14864727    -0.19100
C175        C  0.38723306  0.23793189  0.09817127    -0.20600
C176        C  0.36069372  0.25855202  0.07200777    -0.08600
C177        C  0.33548987  0.23625187  0.04573903     0.30200
C178        C  0.33536965  0.19369780  0.04726645    -0.20600
C179        C  0.36080016  0.17316164  0.07453520    -0.08600
C180        C  0.38718687  0.19534258  0.09964432     0.30200
F181        F  0.41243772  0.17583002  0.12577029    -0.19200
H182        H  0.40764690  0.25486566  0.11769175     0.18600
H183        H  0.31534735  0.17669549  0.02734263     0.18600
F184        F  0.31108414  0.25561083  0.01871628    -0.19100
C185        C  0.08000271  0.19547229  0.03733840    -0.20600
C186        C  0.07702860  0.17454887  0.07451382    -0.08600
C187        C  0.07666173  0.19701856  0.11077740     0.30200
C188        C  0.07703051  0.23927732  0.10986575    -0.20600
C189        C  0.07798432  0.26037998  0.07302017    -0.08600
C190        C  0.08080837  0.23816974  0.03650890     0.30200
F191        F  0.08611844  0.25748029  0.00043309    -0.19200
H192        H  0.08265582  0.17877554  0.00906858     0.18600
H193        H  0.07665140  0.25545458  0.13834835     0.18600
F194        F  0.07575743  0.17844490  0.14742420    -0.19100
C195        C  0.23932969  0.39432384  0.08220738    -0.20600
C196        C  0.25973339  0.35717333  0.07696800    -0.08600
C197        C  0.23718256  0.32092403  0.07406618     0.30200
C198        C  0.19499682  0.32216760  0.07430171    -0.20600
C199        C  0.17463193  0.35939365  0.07807167    -0.08600
C200        C  0.19705258  0.39547875  0.08306136     0.30200
F201        F  0.17818568  0.43151689  0.09006013    -0.19200
H202        H  0.25618479  0.42236810  0.08634856     0.18600
H203        H  0.17813777  0.29398150  0.07110047     0.18600
F204        F  0.25575175  0.28430803  0.07037573    -0.19100
C205        C  0.06018859  0.32532229  0.19550626    -0.20600
C206        C  0.07378951  0.35929958  0.17369385    -0.08600
C207        C  0.08683137  0.39413947  0.19486169     0.30200
C208        C  0.08711346  0.39440128  0.23740646    -0.20600
C209        C  0.07484633  0.35972174  0.25909345    -0.08600
C210        C  0.06114462  0.32524916  0.23791634     0.30200
F211        F  0.04794623  0.29184432  0.25828548    -0.19200
H212        H  0.04816902  0.29907795  0.17979394     0.18600
H213        H  0.09762655  0.42127308  0.25344875     0.18600
F214        F  0.09999190  0.42744034  0.17433589    -0.19100
C215        C  0.09174004  0.04312381  0.23782077    -0.20600
C216        C  0.07341063  0.07523084  0.25904227    -0.08600
C217        C  0.05326772  0.10601539  0.23753079     0.30200
C218        C  0.05205303  0.10495033  0.19508678    -0.20600
C219        C  0.07237740  0.07423139  0.17376042    -0.08600
C220        C  0.09156462  0.04278477  0.19531158     0.30200
F221        F  0.11048711  0.01219221  0.17517708    -0.19200
H222        H  0.10675651  0.01879416  0.25421295     0.18600
H223        H  0.03507525  0.12795893  0.17890185     0.18600
F224        F  0.03453115  0.13678145  0.25760789    -0.19100
C225        C  0.10667620  0.23874271  0.37303928    -0.20600
C226        C  0.07314078  0.26009718  0.35801012    -0.08600
C227        C  0.03907404  0.23828132  0.34437041     0.30200
C228        C  0.03938091  0.19556250  0.34468016    -0.20600
C229        C  0.07379097  0.17440700  0.35820295    -0.08600
C230        C  0.10736762  0.19622448  0.37257423     0.30200
F231        F  0.14051331  0.17635223  0.38683635    -0.19200
H232        H  0.13203326  0.25493210  0.38590197     0.18600
H233        H  0.01315793  0.17897073  0.33372645     0.18600
F234        F  0.00594992  0.25824373  0.33022932    -0.19100
C235        C  0.35239239  0.03816545  0.23820321    -0.20600
C236        C  0.35613823  0.07541548  0.25895615    -0.08600
C237        C  0.35762389  0.11177033  0.23646796     0.30200
C238        C  0.35758915  0.11066691  0.19414406    -0.20600
C239        C  0.35536850  0.07346936  0.17335626    -0.08600
C240        C  0.35171683  0.03710757  0.19569512     0.30200
F241        F  0.34596911  0.00088786  0.17660251    -0.19200
H242        H  0.34910965  0.00997671  0.25496142     0.18600
H243        H  0.35958331  0.13909111  0.17754503     0.18600
F244        F  0.35954595  0.14849225  0.25519585    -0.19100
C245        C  0.19505013  0.08674174  0.39168814    -0.20600
C246        C  0.17356267  0.07590111  0.35646023    -0.08600
C247        C  0.19496076  0.06599455  0.32095684     0.30200
C248        C  0.23733182  0.06596644  0.32112010    -0.20600
C249        C  0.25870328  0.07598706  0.35660747    -0.08600
C250        C  0.23736585  0.08719356  0.39160603     0.30200
F251        F  0.25766881  0.10004218  0.42505970    -0.19200
H252        H  0.17899455  0.09563602  0.41894677     0.18600
H253        H  0.25350891  0.05792504  0.29367062     0.18600
F254        F  0.17490429  0.05577886  0.28638246    -0.19100
C255        C  0.36317518  0.31931374  0.23811132    -0.20600
C256        C  0.35890458  0.35626060  0.25906972    -0.08600
C257        C  0.35277319  0.39236036  0.23696316     0.30200
C258        C  0.35315889  0.39167353  0.19452974    -0.20600
C259        C  0.35898870  0.35498289  0.17348957    -0.08600
C260        C  0.36293549  0.31854510  0.19562977     0.30200
F261        F  0.36670076  0.28224331  0.17637435    -0.19200
H262        H  0.36668044  0.29101499  0.25469059     0.18600
H263        H  0.34777145  0.41966438  0.17798091     0.18600
F264        F  0.34460847  0.42790727  0.25634999    -0.19100
C265        C  0.23809902  0.39416948  0.35118173    -0.20600
C266        C  0.25936448  0.35741292  0.35591625    -0.08600
C267        C  0.23765253  0.32078274  0.35871073     0.30200
C268        C  0.19550677  0.32117158  0.35890050    -0.20600
C269        C  0.17414252  0.35792463  0.35666702    -0.08600
C270        C  0.19575060  0.39449578  0.35134642     0.30200
F271        F  0.17602165  0.43012735  0.34448755    -0.19200
H272        H  0.25431613  0.42250140  0.34657265     0.18600
H273        H  0.17971141  0.29257461  0.36073891     0.18600
F274        F  0.25702898  0.28451764  0.36163324    -0.19100
C275        C  0.33499459  0.19508314  0.38820003    -0.20600
C276        C  0.35926270  0.17375235  0.36054477    -0.08600
C277        C  0.38521050  0.19537064  0.33461878     0.30200
C278        C  0.38456894  0.23795439  0.33419525    -0.20600
C279        C  0.35912675  0.25930853  0.36063530    -0.08600
C280        C  0.33539831  0.23776160  0.38874981     0.30200
F281        F  0.31256382  0.25796824  0.41641900    -0.19200
H282        H  0.31570125  0.17864933  0.40914187     0.18600
H283        H  0.40400270  0.25433342  0.31334988     0.18600
F284        F  0.41130268  0.17528994  0.30997265    -0.19100
C285        C  0.37293311  0.37420699  0.87344082     0.46200
H286        H  0.39165218  0.39468923  0.89229207    -0.02800
C287        C  0.32934236  0.32775517  0.82850359     0.46200
H288        H  0.31056607  0.30758864  0.80892244    -0.02800
C289        C  0.32772827  0.38107611  0.88049491    -0.16500
C290        C  0.38168940  0.38052788  0.82822191    -0.16300
C291        C  0.38032741  0.32917014  0.88238588    -0.16700
C292        C  0.30409950  0.35703973  0.85591662    -0.16600
C293        C  0.35793173  0.35631256  0.80395481    -0.16200
C294        C  0.35751126  0.30410606  0.85842193    -0.16500
C295        C  0.37204648  0.05874848  0.87345287     0.46200
H296        H  0.39130332  0.03938173  0.89278241    -0.02800
C297        C  0.32853004  0.10546206  0.82889766     0.46200
H298        H  0.30934288  0.12575904  0.80993393    -0.02800
C299        C  0.32690970  0.05112665  0.87993659    -0.16500
C300        C  0.37981267  0.10382149  0.88244628    -0.16300
C301        C  0.37961762  0.05146129  0.82811964    -0.16700
C302        C  0.30334318  0.07637452  0.85658550    -0.16600
C303        C  0.35722268  0.12892284  0.85845466    -0.16200
C304        C  0.35661193  0.07656868  0.80395104    -0.16500
C305        C  0.05980289  0.05974352  0.87311765     0.46200
H306        H  0.04132873  0.04006584  0.89287689    -0.02800
C307        C  0.10385538  0.10538187  0.82806796     0.46200
H308        H  0.12282002  0.12523233  0.80846164    -0.02800
C309        C  0.10510181  0.05215198  0.87998684    -0.16500
C310        C  0.05133114  0.05279566  0.82805510    -0.16300
C311        C  0.05134449  0.10490414  0.88047795    -0.16700
C312        C  0.12884138  0.07677269  0.85637481    -0.16600
C313        C  0.07524228  0.07633925  0.80370400    -0.16200
C314        C  0.07515059  0.12954715  0.85701296    -0.16500
C315        C  0.06056203  0.37509482  0.87330383     0.46200
H316        H  0.04176366  0.39468668  0.89277905    -0.02800
C317        C  0.10410841  0.32913361  0.82823453     0.46200
H318        H  0.12285894  0.30921957  0.80852353    -0.02800
C319        C  0.10571928  0.38070944  0.88207147    -0.16500
C320        C  0.05080206  0.32997162  0.87943454    -0.16300
C321        C  0.05415658  0.38407382  0.82818378    -0.16700
C322        C  0.12937463  0.35716520  0.85716409    -0.16600
C323        C  0.07454962  0.30509517  0.85633501    -0.16200
C324        C  0.07666148  0.35914521  0.80383517    -0.16500
C325        C  0.06134613  0.37531524  0.55918620     0.46200
H326        H  0.04209669  0.39440426  0.53960101    -0.02800
C327        C  0.10473871  0.32978257  0.60489598     0.46200
H328        H  0.12376975  0.31036115  0.62491219    -0.02800
C329        C  0.10639832  0.38400884  0.55389010    -0.16500
C330        C  0.05261671  0.38237352  0.60419930    -0.16300
C331        C  0.05480828  0.33003375  0.54993354    -0.16700
C332        C  0.12999090  0.35945974  0.57792837    -0.16600
C333        C  0.07512028  0.35778158  0.62887904    -0.16200
C334        C  0.07796482  0.30542530  0.57423460    -0.16500
C335        C  0.37331226  0.37360962  0.55936996     0.46200
H336        H  0.39165136  0.39354359  0.53974563    -0.02800
C337        C  0.32970798  0.32646826  0.60323780     0.46200
H338        H  0.31089138  0.30605347  0.62237602    -0.02800
C339        C  0.38175518  0.32866687  0.55088186    -0.16500
C340        C  0.38194775  0.37950250  0.60458751    -0.16300
C341        C  0.32808627  0.38153702  0.55305233    -0.16700
C342        C  0.35811176  0.30331128  0.57349473    -0.16600
C343        C  0.35833080  0.35480061  0.62852003    -0.16200
C344        C  0.30448152  0.35605626  0.57605731    -0.16500
C345        C  0.06026296  0.05977426  0.55912057     0.46200
H346        H  0.04149412  0.03958609  0.54001846    -0.02800
C347        C  0.10390818  0.10448129  0.60565928     0.46200
H348        H  0.12306491  0.12367157  0.62580121    -0.02800
C349        C  0.10548236  0.05293885  0.55205208    -0.16500
C350        C  0.05340292  0.10506253  0.55098498    -0.16300
C351        C  0.05101672  0.05257069  0.60403101    -0.16700
C352        C  0.12912123  0.07627253  0.57726680    -0.16600
C353        C  0.07641746  0.12945869  0.57595701    -0.16200
C354        C  0.07460814  0.07570820  0.62904994    -0.16500
C355        C  0.37245545  0.05874754  0.55891338     0.46200
H356        H  0.39130434  0.03917095  0.53945517    -0.02800
C357        C  0.32890365  0.10483488  0.60379726     0.46200
H358        H  0.30999166  0.12512688  0.62295773    -0.02800
C359        C  0.32727160  0.05409724  0.54944811    -0.16500
C360        C  0.37808419  0.04919411  0.60410907    -0.16300
C361        C  0.38291821  0.10368952  0.55330854    -0.16700
C362        C  0.30368974  0.07811839  0.57392719    -0.16600
C363        C  0.35510396  0.07395010  0.62842825    -0.16200
C364        C  0.35931415  0.12848327  0.57653183    -0.16500
O365        O  0.99437882  0.01503817  0.58428997    -0.71000
O366        O  0.43794006  0.41734873  0.58503523    -0.71300
O367        O  0.41747220  0.99418353  0.58452427    -0.71100
O368        O  0.01427624  0.43805146  0.58464509    -0.71100
O369        O  0.00511556  0.42162068  0.64756912    -0.71100
O370        O  0.42720072  0.01111038  0.64729495    -0.71100
O371        O  0.42185075  0.42720169  0.64785661    -0.71100
O372        O  0.01088159  0.00555314  0.64724740    -0.71200
V373        V  0.46600237  0.46620096  0.58569427     1.35200
V374        V  0.46628514  0.46643980  0.64781612     1.35200
C375        C  0.01708765  0.02402378  0.61368991     0.78200
C376        C  0.41560474  0.40831661  0.61452492     0.78200
C377        C  0.40801159  0.01651174  0.61396314     0.78100
C378        C  0.02350232  0.41555368  0.61405297     0.78100
O379        O  0.01113104  0.00599976  0.78450244    -0.71000
O380        O  0.42193321  0.42778627  0.78475209    -0.71300
O381        O  0.42760258  0.01207929  0.78463078    -0.71100
O382        O  0.00552630  0.42233057  0.78473673    -0.71100
O383        O  0.01495508  0.43911226  0.84761222    -0.71100
O384        O  0.41812609  0.99543615  0.84738574    -0.71100
O385        O  0.43826626  0.41830742  0.84764430    -0.71100
O386        O  0.99475780  0.01588004  0.84732391    -0.71200
V387        V  0.46646438  0.46703189  0.78430914     1.35200
V388        V  0.46651840  0.46716828  0.84640940     1.35200
C389        C  0.01741436  0.02457823  0.81800162     0.78200
C390        C  0.41565134  0.40918585  0.81824310     0.78200
C391        C  0.40890959  0.01808500  0.81804883     0.78100
C392        C  0.02446333  0.41680570  0.81817944     0.78100
O393        O  0.08692452  0.99511732  0.91758654    -0.71000
O394        O  0.08751857  0.44004877  0.51563681    -0.71300
O395        O  0.08729231  0.01661041  0.49424655    -0.71100
O396        O  0.08711042  0.41822764  0.93900965    -0.71100
O397        O  0.14932108  0.42850925  0.92187176    -0.71100
O398        O  0.14945481  0.00630864  0.51193145    -0.71100
O399        O  0.14972367  0.42259175  0.50553753    -0.71100
O400        O  0.14913307  0.01280160  0.92773609    -0.71200
V401        V  0.08819582  0.46748264  0.96661252     1.35200
V402        V  0.14988428  0.46761443  0.96669039     1.35200
C403        C  0.11577954  0.01838005  0.90874080     0.78200
C404        C  0.11661179  0.41719287  0.52469167     0.78200
C405        C  0.11611773  0.02504579  0.51775831     0.78100
C406        C  0.11610408  0.40938245  0.91604155     0.78100
O407        O  0.43842201  0.08394792  0.51498479    -0.71000
O408        O  0.99564398  0.08478943  0.91839078    -0.71300
O409        O  0.01517603  0.08500818  0.49531443    -0.71100
O410        O  0.41887330  0.08383899  0.93777525    -0.71100
O411        O  0.42750617  0.14723500  0.92198333    -0.71100
O412        O  0.00533226  0.14803176  0.51159238    -0.71100
O413        O  0.01118953  0.14810832  0.92783288    -0.71100
O414        O  0.42211228  0.14713572  0.50577904    -0.71200
V415        V  0.46701635  0.08552326  0.96663345     1.35200
V416        V  0.46651191  0.14789324  0.96675002     1.35200
C417        C  0.41617024  0.11348688  0.52432781     0.78200
C418        C  0.01779953  0.11454460  0.90935123     0.78200
C419        C  0.02423060  0.11469176  0.51765825     0.78100
C420        C  0.40922531  0.11348431  0.91567270     0.78100
O421        O  0.28330234  0.01132205  0.92735360    -0.71000
O422        O  0.28412324  0.42079607  0.50503846    -0.71300
O423        O  0.28371664  0.00517197  0.51116050    -0.71100
O424        O  0.28373330  0.42739427  0.92105628    -0.71100
O425        O  0.34596028  0.41725867  0.93847753    -0.71100
O426        O  0.34577839  0.01569880  0.49342482    -0.71100
O427        O  0.34621970  0.43877593  0.51530209    -0.71100
O428        O  0.34548505  0.99399037  0.91704344    -0.71200
V429        V  0.28322332  0.46610944  0.96620254     1.35200
V430        V  0.34488518  0.46640280  0.96611427     1.35200
C431        C  0.31646242  0.01711317  0.90832839     0.78200
C432        C  0.31743314  0.41537623  0.52417010     0.78200
C433        C  0.31682966  0.02468670  0.51633831     0.78100
C434        C  0.31710477  0.40880661  0.91499623     0.78100
O435        O  0.41892165  0.34941906  0.93750558    -0.71000
O436        O  0.01526736  0.34989689  0.49485623    -0.71300
O437        O  0.99552425  0.34985966  0.91786272    -0.71100
O438        O  0.43825937  0.34919547  0.51437032    -0.71100
O439        O  0.42265454  0.28588874  0.50455778    -0.71100
O440        O  0.01178764  0.28668569  0.92715804    -0.71100
O441        O  0.00624328  0.28669939  0.51093637    -0.71100
O442        O  0.42841024  0.28621620  0.92132746    -0.71200
V443        V  0.46702411  0.34848627  0.96618536     1.35200
V444        V  0.46733240  0.28610699  0.96603396     1.35200
C445        C  0.40965948  0.31968502  0.91536683     0.79400
C446        C  0.02492880  0.32029196  0.51698235     0.78200
C447        C  0.01772869  0.32027740  0.90856332     0.78100
C448        C  0.41586046  0.31943209  0.52286659     0.78100
C449        C  0.19429121  0.08303946  0.53926137    -0.20600
C450        C  0.17384294  0.07736919  0.57618490    -0.08600
C451        C  0.19630029  0.07396241  0.61234224     0.30200
C452        C  0.23854571  0.07425382  0.61120972    -0.20600
C453        C  0.25897659  0.07824487  0.57413193    -0.08600
C454        C  0.23657312  0.08363160  0.53826305     0.30200
F455        F  0.25562342  0.09076565  0.50262120    -0.19200
H456        H  0.17749776  0.08753493  0.51129101     0.18600
H457        H  0.25538371  0.07074443  0.63930454     0.18600
F458        F  0.17746134  0.06938587  0.64864764    -0.19100
C459        C  0.38723437  0.23793150  0.59817022    -0.20600
C460        C  0.36069508  0.25855187  0.57200680    -0.08600
C461        C  0.33549103  0.23625183  0.54573816     0.30200
C462        C  0.33537063  0.19369771  0.54726552    -0.20600
C463        C  0.36080110  0.17316130  0.57453415    -0.08600
C464        C  0.38718794  0.19534213  0.59964320     0.30200
F465        F  0.41243857  0.17582939  0.62576921    -0.19200
H466        H  0.40764818  0.25486507  0.61769080     0.18600
H467        H  0.31534815  0.17669558  0.52734183     0.18600
F468        F  0.31108495  0.25561088  0.51871577    -0.19100
C469        C  0.08000404  0.19547209  0.53733879    -0.20600
C470        C  0.07702848  0.17454866  0.57451403    -0.08600
C471        C  0.07666056  0.19701813  0.61077770     0.30200
C472        C  0.07703002  0.23927696  0.60986626    -0.20600
C473        C  0.07798530  0.26037963  0.57302071    -0.08600
C474        C  0.08081030  0.23816952  0.53650950     0.30200
F475        F  0.08612182  0.25748026  0.50043402    -0.19200
H476        H  0.08265784  0.17877534  0.50906906     0.18600
H477        H  0.07665008  0.25545416  0.63834870     0.18600
F478        F  0.07575422  0.17844410  0.64742431    -0.19100
C479        C  0.23933086  0.39432417  0.58220768    -0.20600
C480        C  0.25973468  0.35717369  0.57696799    -0.08600
C481        C  0.23718385  0.32092439  0.57406661     0.30200
C482        C  0.19499807  0.32216785  0.57430230    -0.20600
C483        C  0.17463300  0.35939385  0.57807202    -0.08600
C484        C  0.19705364  0.39547896  0.58306190     0.30200
F485        F  0.17818665  0.43151697  0.59006104    -0.19200
H486        H  0.25618587  0.42236844  0.58634884     0.18600
H487        H  0.17813915  0.29398171  0.57110133     0.18600
F488        F  0.25575308  0.28430836  0.57037662    -0.19100
C489        C  0.06018844  0.32532319  0.69550618    -0.20600
C490        C  0.07378975  0.35930014  0.67369356    -0.08600
C491        C  0.08683115  0.39414039  0.69486104     0.30200
C492        C  0.08711279  0.39440276  0.73740584    -0.20600
C493        C  0.07484579  0.35972328  0.75909305    -0.08600
C494        C  0.06114411  0.32525056  0.73791623     0.30200
F495        F  0.04794550  0.29184593  0.75828554    -0.19200
H496        H  0.04816906  0.29907877  0.67979408     0.18600
H497        H  0.09762564  0.42127473  0.75344791     0.18600
F498        F  0.09999175  0.42744094  0.67433482    -0.19100
C499        C  0.09174247  0.04312683  0.73782112    -0.20600
C500        C  0.07340910  0.07523181  0.75904208    -0.08600
C501        C  0.05326320  0.10601421  0.73753024     0.30200
C502        C  0.05204962  0.10494900  0.69508624    -0.20600
C503        C  0.07237759  0.07423207  0.67376052    -0.08600
C504        C  0.09156795  0.04278766  0.69531204     0.30200
F505        F  0.11049416  0.01219708  0.67517804    -0.19200
H506        H  0.10676125  0.01879883  0.75421369     0.18600
H507        H  0.03507020  0.12795611  0.67890075     0.18600
F508        F  0.03452291  0.13677832  0.75760681    -0.19100
C509        C  0.10667681  0.23874352  0.87303812    -0.20600
C510        C  0.07314151  0.26009828  0.85800914    -0.08600
C511        C  0.03907450  0.23828262  0.84436969     0.30200
C512        C  0.03938094  0.19556377  0.84467979    -0.20600
C513        C  0.07379092  0.17440798  0.85820242    -0.08600
C514        C  0.10736797  0.19622530  0.87257308     0.30200
F515        F  0.14051376  0.17635282  0.88683462    -0.19200
H516        H  0.13203421  0.25493279  0.88590091     0.18600
H517        H  0.01315775  0.17897219  0.83372641     0.18600
F518        F  0.00595042  0.25824524  0.83022878    -0.19100
C519        C  0.35239099  0.03816477  0.73820213    -0.20600
C520        C  0.35613872  0.07541470  0.75895501    -0.08600
C521        C  0.35762669  0.11176937  0.73646674     0.30200
C522        C  0.35759146  0.11066590  0.69414282    -0.20600
C523        C  0.35536858  0.07346848  0.67335505    -0.08600
C524        C  0.35171524  0.03710685  0.69569397     0.30200
F525        F  0.34596596  0.00088736  0.67660135    -0.19200
H526        H  0.34910710  0.00997627  0.75496047     0.18600
H527        H  0.35958712  0.13909000  0.67754368     0.18600
F528        F  0.35955180  0.14849112  0.75519474    -0.19100
C529        C  0.19504980  0.08674059  0.89168728    -0.20600
C530        C  0.17356229  0.07590144  0.85645891    -0.08600
C531        C  0.19496060  0.06599639  0.82095520     0.30200
C532        C  0.23733176  0.06596834  0.82111854    -0.20600
C533        C  0.25870327  0.07598746  0.85660640    -0.08600
C534        C  0.23736559  0.08719231  0.89160533     0.30200
F535        F  0.25766833  0.10003918  0.92505979    -0.19200
H536        H  0.17899424  0.09563372  0.91894616     0.18600
H537        H  0.25350879  0.05792811  0.79366887     0.18600
F538        F  0.17490436  0.05578195  0.78638034    -0.19100
C539        C  0.36317476  0.31931346  0.73811090    -0.20600
C540        C  0.35890427  0.35626038  0.75906933    -0.08600
C541        C  0.35277279  0.39236008  0.73696270     0.30200
C542        C  0.35315908  0.39167330  0.69452925    -0.20600
C543        C  0.35898929  0.35498266  0.67348913    -0.08600
C544        C  0.36293539  0.31854482  0.69562930     0.30200
F545        F  0.36670033  0.28224300  0.67637380    -0.19200
H546        H  0.36667973  0.29101466  0.75469016     0.18600
H547        H  0.34777180  0.41966403  0.67798043     0.18600
F548        F  0.34460742  0.42790692  0.75634941    -0.19100
C549        C  0.23809941  0.39416931  0.85118007    -0.20600
C550        C  0.25936420  0.35741241  0.85591459    -0.08600
C551        C  0.23765182  0.32078245  0.85870868     0.30200
C552        C  0.19550623  0.32117205  0.85889844    -0.20600
C553        C  0.17414266  0.35792543  0.85666564    -0.08600
C554        C  0.19575111  0.39449636  0.85134512     0.30200
F555        F  0.17602265  0.43012825  0.84448649    -0.19200
H556        H  0.25431699  0.42250101  0.84657108     0.18600
H557        H  0.17971027  0.29257505  0.86073651     0.18600
F558        F  0.25702767  0.28451705  0.86163112    -0.19100
C559        C  0.33499322  0.19508296  0.88819729    -0.20600
C560        C  0.35926317  0.17375247  0.86054349    -0.08600
C561        C  0.38521312  0.19537095  0.83461974     0.30200
C562        C  0.38457162  0.23795469  0.83419663    -0.20600
C563        C  0.35912745  0.25930850  0.86063499    -0.08600
C564        C  0.33539715  0.23776135  0.88874771     0.30200
F565        F  0.31256118  0.25796786  0.91641574    -0.19200
H566        H  0.31569833  0.17864892  0.90913767     0.18600
H567        H  0.40400687  0.25433402  0.81335269     0.18600
F568        F  0.41130721  0.17529051  0.80997542    -0.19100
C569        C  0.37293356  0.87420647  0.37343844     0.46200
H570        H  0.39165271  0.89468863  0.39228967    -0.02800
C571        C  0.32934252  0.82775478  0.32850145     0.46200
H572        H  0.31056617  0.80758823  0.30892034    -0.02800
C573        C  0.32772866  0.88107594  0.38049232    -0.16500
C574        C  0.38169016  0.88052703  0.32821959    -0.16300
C575        C  0.38032770  0.82916969  0.38238378    -0.16700
C576        C  0.30409961  0.85703976  0.35591408    -0.16600
C577        C  0.35793231  0.85631175  0.30395258    -0.16200
C578        C  0.35751118  0.80410565  0.35842010    -0.16500
C579        C  0.37204542  0.55874790  0.37345442     0.46200
H580        H  0.39130203  0.53938085  0.39278374    -0.02800
C581        C  0.32852878  0.60546193  0.32889999     0.46200
H582        H  0.30934136  0.62575899  0.30993671    -0.02800
C583        C  0.32690868  0.55112641  0.37993864    -0.16500
C584        C  0.37981224  0.60382083  0.38244778    -0.16300
C585        C  0.37961617  0.55146091  0.32812109    -0.16700
C586        C  0.30334219  0.57637455  0.35658813    -0.16600
C587        C  0.35722199  0.62892244  0.35845661    -0.16200
C588        C  0.35661024  0.57656849  0.30395285    -0.16500
C589        C  0.05980224  0.55974422  0.37311807     0.46200
H590        H  0.04132779  0.54006702  0.39287743    -0.02800
C591        C  0.10385551  0.60538177  0.32806830     0.46200
H592        H  0.12282053  0.62523177  0.30846204    -0.02800
C593        C  0.10510099  0.55215290  0.37998824    -0.16500
C594        C  0.05133147  0.55279539  0.32805545    -0.16300
C595        C  0.05134376  0.60490503  0.38047725    -0.16700
C596        C  0.12884090  0.57677328  0.35637642    -0.16600
C597        C  0.07524290  0.57633855  0.30370430    -0.16200
C598        C  0.07515007  0.62954760  0.35701217    -0.16500
C599        C  0.06056128  0.87509526  0.37330348     0.46200
H600        H  0.04176324  0.89468747  0.39277869    -0.02800
C601        C  0.10410667  0.82913333  0.32823390     0.46200
H602        H  0.12285663  0.80921891  0.30852271    -0.02800
C603        C  0.10571883  0.88070943  0.38207037    -0.16500
C604        C  0.05080102  0.82997222  0.37943480    -0.16300
C605        C  0.05415532  0.88407396  0.32818346    -0.16700
C606        C  0.12937376  0.85716503  0.35716266    -0.16600
C607        C  0.07454811  0.80509544  0.35633511    -0.16200
C608        C  0.07665945  0.85914476  0.30383478    -0.16500
C609        C  0.06134737  0.87531619  0.05918621     0.46200
H610        H  0.04209812  0.89440540  0.03960093    -0.02800
C611        C  0.10473940  0.82978291  0.10489596     0.46200
H612        H  0.12377016  0.81036107  0.12491212    -0.02800
C613        C  0.10639965  0.88400918  0.05388995    -0.16500
C614        C  0.05261790  0.88237456  0.10419925    -0.16300
C615        C  0.05480892  0.83003477  0.04993377    -0.16700
C616        C  0.12999197  0.85945972  0.07792812    -0.16600
C617        C  0.07512110  0.85778218  0.12887894    -0.16200
C618        C  0.07796506  0.80542602  0.07423485    -0.16500
C619        C  0.37331328  0.87360875  0.05936785     0.46200
H620        H  0.39165255  0.89354279  0.03974371    -0.02800
C621        C  0.32970882  0.82646712  0.10323522     0.46200
H622        H  0.31089199  0.80605219  0.12237309    -0.02800
C623        C  0.38175653  0.82866614  0.05087979    -0.16500
C624        C  0.38194819  0.87950162  0.10458552    -0.16300
C625        C  0.32808739  0.88153591  0.05304968    -0.16700
C626        C  0.35811333  0.80331044  0.07349270    -0.16600
C627        C  0.35833114  0.85479955  0.12851782    -0.16200
C628        C  0.30448254  0.85605492  0.07605430    -0.16500
C629        C  0.06026099  0.55977546  0.05912045     0.46200
H630        H  0.04149215  0.53958759  0.04001798    -0.02800
C631        C  0.10390568  0.60448238  0.10565982     0.46200
H632        H  0.12306196  0.62367282  0.12580205    -0.02800
C633        C  0.10548056  0.55294014  0.05205246    -0.16500
C634        C  0.05340113  0.60506368  0.05098485    -0.16300
C635        C  0.05101445  0.55257157  0.10403083    -0.16700
C636        C  0.12911921  0.57627392  0.07726743    -0.16600
C637        C  0.07641502  0.62945970  0.07595749    -0.16200
C638        C  0.07460570  0.57570897  0.12905007    -0.16500
C639        C  0.37245379  0.55874729  0.05891502     0.46200
H640        H  0.39130225  0.53917022  0.03945678    -0.02800
C641        C  0.32890308  0.60483577  0.10379873     0.46200
H642        H  0.30999156  0.62512837  0.12295906    -0.02800
C643        C  0.32726968  0.55409784  0.04945004    -0.16500
C644        C  0.37808286  0.54919430  0.10411078    -0.16300
C645        C  0.38291752  0.60368887  0.05330962    -0.16700
C646        C  0.30368835  0.57811970  0.07392899    -0.16600
C647        C  0.35510289  0.57395069  0.12842989    -0.16200
C648        C  0.35931412  0.62848318  0.07653296    -0.16500
O649        O  0.99437753  0.51503782  0.08428928    -0.71000
O650        O  0.43794066  0.91734769  0.08503368    -0.71300
O651        O  0.41747193  0.49418457  0.08452593    -0.71100
O652        O  0.01427640  0.93805184  0.08464489    -0.71100
O653        O  0.00511682  0.92162175  0.14756927    -0.71100
O654        O  0.42720034  0.51111152  0.14729658    -0.71100
O655        O  0.42185075  0.92720090  0.14785484    -0.71100
O656        O  0.01088015  0.50555284  0.14724678    -0.71200
V657        V  0.46600269  0.96620001  0.08569286     1.35200
V658        V  0.46628517  0.96643888  0.14781468     1.35200
C659        C  0.01708601  0.52402378  0.11368938     0.78200
C660        C  0.41560506  0.90831569  0.11452317     0.78200
C661        C  0.40801096  0.51651254  0.11396486     0.78100
C662        C  0.02350313  0.91555449  0.11405292     0.78100
O663        O  0.01113214  0.50599929  0.28450238    -0.71000
O664        O  0.42193492  0.92778515  0.28475009    -0.71300
O665        O  0.42760166  0.51207940  0.28463210    -0.71100
O666        O  0.00552519  0.92233114  0.28473669    -0.71100
O667        O  0.01495561  0.93911390  0.34761166    -0.71100
O668        O  0.41812573  0.49543667  0.34738721    -0.71100
O669        O  0.43826727  0.91830610  0.34764242    -0.71100
O670        O  0.99475876  0.51587883  0.34732395    -0.71200
V671        V  0.46646599  0.96703104  0.28430785     1.35200
V672        V  0.46651935  0.96716705  0.34640813     1.35200
C673        C  0.01741526  0.52457744  0.31800179     0.78200
C674        C  0.41565256  0.90918469  0.31824100     0.78200
C675        C  0.40890869  0.51808509  0.31805016     0.78100
C676        C  0.02446284  0.91680655  0.31817910     0.78100
O677        O  0.08692328  0.49511847  0.41758784    -0.71000
O678        O  0.08752040  0.94004915  0.01563649    -0.71300
O679        O  0.08729087  0.51661106  0.99424722    -0.71100
O680        O  0.08711101  0.91822707  0.43900908    -0.71100
O681        O  0.14932156  0.92850826  0.42187061    -0.71100
O682        O  0.14945334  0.50630972  0.01193256    -0.71100
O683        O  0.14972517  0.92259134  0.00553661    -0.71100
O684        O  0.14913191  0.51280244  0.42773766    -0.71200
V685        V  0.08819688  0.96748198  0.46661186     1.35200
V686        V  0.14988533  0.96761339  0.46668924     1.35200
C687        C  0.11577842  0.51838112  0.40874237     0.78200
C688        C  0.11661345  0.91719296  0.02469122     0.78200
C689        C  0.11611618  0.52504681  0.01775903     0.78100
C690        C  0.11610431  0.90938191  0.41604055     0.78100
O691        O  0.43842069  0.58394607  0.01498516    -0.71000
O692        O  0.99564262  0.58479143  0.41838926    -0.71300
O693        O  0.01517656  0.58501017  0.99531224    -0.71100
O694        O  0.41887471  0.58383713  0.43777488    -0.71100
O695        O  0.42750650  0.64723371  0.42198475    -0.71100
O696        O  0.00533124  0.64803313  0.01159183    -0.71100
O697        O  0.01119013  0.64810964  0.42783274    -0.71100
O698        O  0.42211323  0.64713465  0.00578078    -0.71200
V699        V  0.46701686  0.58552122  0.46663433     1.35200
V700        V  0.46651265  0.64789141  0.46675109     1.35200
C701        C  0.41616983  0.61348556  0.02432871     0.78200
C702        C  0.01779895  0.61454612  0.40935027     0.78200
C703        C  0.02423005  0.61469330  0.01765718     0.78100
C704        C  0.40922596  0.61348300  0.41567345     0.78100
O705        O  0.28330091  0.51132197  0.42735533    -0.71000
O706        O  0.28412446  0.92079569  0.00503624    -0.71300
O707        O  0.28371437  0.50517283  0.01116229    -0.71100
O708        O  0.28373423  0.92739392  0.42105425    -0.71100
O709        O  0.34596121  0.91725778  0.43847508    -0.71100
O710        O  0.34577593  0.51570013  0.99342637    -0.71100
O711        O  0.34622126  0.93877463  0.01529933    -0.71100
O712        O  0.34548366  0.49399018  0.41704548    -0.71200
V713        V  0.28322496  0.96610882  0.46620067     1.35200
V714        V  0.34488687  0.96640174  0.46611210     1.35200
C715        C  0.31646113  0.51711302  0.40833033     0.78200
C716        C  0.31743447  0.91537527  0.02416751     0.78200
C717        C  0.31682726  0.52468779  0.01634000     0.78100
C718        C  0.31710551  0.90880613  0.41499388     0.78100
O719        O  0.41892293  0.84941855  0.43750306    -0.71000
O720        O  0.01526734  0.84989795  0.99485711    -0.71300
O721        O  0.99552404  0.84986073  0.41786429    -0.71100
O722        O  0.43826056  0.84919489  0.01436812    -0.71100
O723        O  0.42265551  0.78588823  0.00455541    -0.71100
O724        O  0.01178746  0.78668673  0.42715946    -0.71100
O725        O  0.00624356  0.78670044  0.01093750    -0.71100
O726        O  0.42841119  0.78621569  0.42132484    -0.71200
V727        V  0.46702559  0.84848545  0.46618280     1.35200
V728        V  0.46733376  0.78610617  0.46603119     1.35200
C729        C  0.40966035  0.81968454  0.41536442     0.79400
C730        C  0.02492904  0.82029306  0.01698315     0.78200
C731        C  0.01772823  0.82027837  0.40856450     0.78100
C732        C  0.41586167  0.81943150  0.02286440     0.78100
C733        C  0.19428968  0.58304257  0.03926270    -0.20600
C734        C  0.17384108  0.57737106  0.07618588    -0.08600
C735        C  0.19629827  0.57396407  0.11234334     0.30200
C736        C  0.23854380  0.57425561  0.11121115    -0.20600
C737        C  0.25897503  0.57824739  0.07413359    -0.08600
C738        C  0.23657170  0.58363535  0.03826475     0.30200
F739        F  0.25562227  0.59077091  0.00262331    -0.19200
H740        H  0.17749634  0.58753851  0.01129225     0.18600
H741        H  0.25538159  0.57074565  0.13930599     0.18600
F742        F  0.17745905  0.56938726  0.14864855    -0.19100
C743        C  0.38723516  0.73793116  0.09817037    -0.20600
C744        C  0.36069729  0.75855119  0.07200525    -0.08600
C745        C  0.33549454  0.73625101  0.04573561     0.30200
C746        C  0.33537339  0.69369702  0.04726391    -0.20600
C747        C  0.36080193  0.67316096  0.07453456    -0.08600
C748        C  0.38718803  0.69534185  0.09964434     0.30200
F749        F  0.41243732  0.67582930  0.12577184    -0.19200
H750        H  0.40764827  0.75486493  0.11769153     0.18600
H751        H  0.31535172  0.67669475  0.02733947     0.18600
F752        F  0.31109022  0.75560992  0.01871159    -0.19100
C753        C  0.08000294  0.69547290  0.03733957    -0.20600
C754        C  0.07702579  0.67454956  0.07451467    -0.08600
C755        C  0.07665611  0.69701894  0.11077840     0.30200
C756        C  0.07702675  0.73927783  0.10986699    -0.20600
C757        C  0.07798422  0.76038040  0.07302139    -0.08600
C758        C  0.08080975  0.73817023  0.03651029     0.30200
F759        F  0.08612197  0.75748083  0.00043485    -0.19200
H760        H  0.08265749  0.67877614  0.00906992     0.18600
H761        H  0.07664580  0.75545527  0.13834946     0.18600
F762        F  0.07574670  0.67844456  0.14742483    -0.19100
C763        C  0.23933230  0.89432291  0.08220645    -0.20600
C764        C  0.25973574  0.85717253  0.07696488    -0.08600
C765        C  0.23718463  0.82092350  0.07406201     0.30200
C766        C  0.19499880  0.82216723  0.07429895    -0.20600
C767        C  0.17463408  0.85939321  0.07807100    -0.08600
C768        C  0.19705512  0.89547798  0.08306162     0.30200
F769        F  0.17818855  0.93151589  0.09006247    -0.19200
H770        H  0.25618766  0.92236688  0.08634843     0.18600
H771        H  0.17813951  0.79398137  0.07109704     0.18600
F772        F  0.25575371  0.78430765  0.07036932    -0.19100
C773        C  0.06018366  0.82532478  0.19550545    -0.20600
C774        C  0.07378971  0.85930020  0.17369337    -0.08600
C775        C  0.08683427  0.89413893  0.19486125     0.30200
C776        C  0.08711497  0.89440114  0.23740598    -0.20600
C777        C  0.07484363  0.85972305  0.25909276    -0.08600
C778        C  0.06113809  0.82525201  0.23791562     0.30200
F779        F  0.04793472  0.79184915  0.25828477    -0.19200
H780        H  0.04816169  0.79908175  0.17979276     0.18600
H781        H  0.09763056  0.92127183  0.25344842     0.18600
F782        F  0.09999880  0.92743810  0.17433540    -0.19100
C783        C  0.09174585  0.54312858  0.23782066    -0.20600
C784        C  0.07340922  0.57523121  0.25904231    -0.08600
C785        C  0.05325870  0.60601104  0.23753110     0.30200
C786        C  0.05204486  0.60494644  0.19508705    -0.20600
C787        C  0.07237578  0.57423197  0.17376066    -0.08600
C788        C  0.09157020  0.54278958  0.19531153     0.30200
F789        F  0.11049930  0.51220123  0.17517684    -0.19200
H790        H  0.10676764  0.51880212  0.25421270     0.18600
H791        H  0.03506330  0.62795243  0.17890187     0.18600
F792        F  0.03451452  0.63677218  0.25760849    -0.19100
C793        C  0.10667672  0.73874401  0.37303520    -0.20600
C794        C  0.07313999  0.76009865  0.35800951    -0.08600
C795        C  0.03907187  0.73828292  0.34437296     0.30200
C796        C  0.03937880  0.69556409  0.34468219    -0.20600
C797        C  0.07379031  0.67440845  0.35820112    -0.08600
C798        C  0.10736832  0.69622590  0.37256924     0.30200
F799        F  0.14051546  0.67635358  0.38682767    -0.19200
H800        H  0.13203501  0.75493332  0.38589630     0.18600
H801        H  0.01315461  0.67897243  0.33373121     0.18600
F802        F  0.00594618  0.75824550  0.33023589    -0.19100
C803        C  0.35239014  0.53816493  0.23820368    -0.20600
C804        C  0.35613665  0.57541487  0.25895677    -0.08600
C805        C  0.35762314  0.61176972  0.23646867     0.30200
C806        C  0.35758844  0.61066642  0.19414473    -0.20600
C807        C  0.35536702  0.57346899  0.17335674    -0.08600
C808        C  0.35171446  0.53710720  0.19569552     0.30200
F809        F  0.34596631  0.50088758  0.17660280    -0.19200
H810        H  0.34910715  0.50997626  0.25496180     0.18600
H811        H  0.35958337  0.63909061  0.17754581     0.18600
F812        F  0.35954619  0.64849153  0.25519677    -0.19100
C813        C  0.19504889  0.58674531  0.39168856    -0.20600
C814        C  0.17356167  0.57590173  0.35646136    -0.08600
C815        C  0.19496013  0.56599119  0.32095936     0.30200
C816        C  0.23733119  0.56596320  0.32112289    -0.20600
C817        C  0.25870245  0.57598741  0.35660936    -0.08600
C818        C  0.23736471  0.58719674  0.39160690     0.30200
F819        F  0.25766732  0.60004730  0.42506009    -0.19200
H820        H  0.17899309  0.59564186  0.41894631     0.18600
H821        H  0.25350836  0.55791903  0.29367446     0.18600
F822        F  0.17490411  0.55577124  0.28638605    -0.19100
C823        C  0.36317409  0.81931224  0.23810885    -0.20600
C824        C  0.35890477  0.85625935  0.25906715    -0.08600
C825        C  0.35277403  0.89235912  0.23696042     0.30200
C826        C  0.35316004  0.89167217  0.19452702    -0.20600
C827        C  0.35898931  0.85498140  0.17348696    -0.08600
C828        C  0.36293431  0.81854344  0.19562727     0.30200
F829        F  0.36669768  0.78224138  0.17637196    -0.19200
H830        H  0.36667840  0.79101334  0.25468825     0.18600
H831        H  0.34777324  0.91966307  0.17797811     0.18600
F832        F  0.34460958  0.92790623  0.25634698    -0.19100
C833        C  0.23809900  0.89416953  0.35117814    -0.20600
C834        C  0.25936404  0.85741260  0.35591207    -0.08600
C835        C  0.23765159  0.82078262  0.35870522     0.30200
C836        C  0.19550593  0.82117206  0.35889482    -0.20600
C837        C  0.17414206  0.85792539  0.35666314    -0.08600
C838        C  0.19575054  0.89449642  0.35134310     0.30200
F839        F  0.17602192  0.93012838  0.34448521    -0.19200
H840        H  0.25431650  0.92250135  0.34656970     0.18600
H841        H  0.17971027  0.79257503  0.36073197     0.18600
F842        F  0.25702745  0.78451716  0.36162686    -0.19100
C843        C  0.33499322  0.69508324  0.38819823    -0.20600
C844        C  0.35926299  0.67375207  0.36054479    -0.08600
C845        C  0.38521225  0.69536992  0.33461986     0.30200
C846        C  0.38457063  0.73795364  0.33419559    -0.20600
C847        C  0.35912686  0.75930811  0.36063382    -0.08600
C848        C  0.33539688  0.73776165  0.38874734     0.30200
F849        F  0.31256068  0.75796875  0.41641476    -0.19200
H850        H  0.31569858  0.67864974  0.40913913     0.18600
H851        H  0.40400541  0.75433242  0.31335085     0.18600
F852        F  0.41130548  0.67528886  0.30997512    -0.19100
C853        C  0.37293440  0.87420726  0.87343823     0.46200
H854        H  0.39165392  0.89468926  0.89228931    -0.02800
C855        C  0.32934257  0.82775576  0.82850181     0.46200
H856        H  0.31056601  0.80758927  0.80892087    -0.02800
C857        C  0.32772955  0.88107731  0.88049228    -0.16500
C858        C  0.38169088  0.88052741  0.82821929    -0.16300
C859        C  0.38032807  0.82917042  0.88238383    -0.16700
C860        C  0.30410001  0.85704108  0.85591443    -0.16600
C861        C  0.35793267  0.85631220  0.80395261    -0.16200
C862        C  0.35751097  0.80410651  0.85842060    -0.16500
C863        C  0.37204463  0.55874838  0.87345561     0.46200
H864        H  0.39130106  0.53938103  0.89278493    -0.02800
C865        C  0.32852811  0.60546298  0.82890164     0.46200
H866        H  0.30934058  0.62576018  0.80993859    -0.02800
C867        C  0.32690798  0.55112664  0.87993950    -0.16500
C868        C  0.37981150  0.60382124  0.88244932    -0.16300
C869        C  0.37961544  0.55146197  0.82812222    -0.16700
C870        C  0.30334165  0.57637524  0.85658937    -0.16600
C871        C  0.35722114  0.62892318  0.85845859    -0.16200
C872        C  0.35660955  0.57656983  0.80395419    -0.16500
C873        C  0.05980270  0.55974359  0.87311877     0.46200
H874        H  0.04132831  0.54006636  0.89287823    -0.02800
C875        C  0.10385587  0.60538130  0.82806908     0.46200
H876        H  0.12282087  0.62523138  0.80846286    -0.02800
C877        C  0.10510148  0.55215298  0.87998940    -0.16500
C878        C  0.05133254  0.55279428  0.82805610    -0.16300
C879        C  0.05134344  0.60490429  0.88047743    -0.16700
C880        C  0.12884119  0.57677353  0.85637775    -0.16600
C881        C  0.07524416  0.57633736  0.80370498    -0.16200
C882        C  0.07514972  0.62954689  0.85701236    -0.16500
C883        C  0.06056078  0.87509425  0.87330416     0.46200
H884        H  0.04176251  0.89468652  0.89277920    -0.02800
C885        C  0.10410661  0.82913208  0.82823517     0.46200
H886        H  0.12285675  0.80921757  0.80852429    -0.02800
C887        C  0.10571833  0.88070816  0.88207153    -0.16500
C888        C  0.05080011  0.82997123  0.87943524    -0.16300
C889        C  0.05415561  0.88407321  0.82818404    -0.16700
C890        C  0.12937355  0.85716353  0.85716431    -0.16600
C891        C  0.07454732  0.80509440  0.85633573    -0.16200
C892        C  0.07665996  0.85914376  0.80383567    -0.16500
C893        C  0.06134670  0.87531619  0.55918701     0.46200
H894        H  0.04209731  0.89440553  0.53960199    -0.02800
C895        C  0.10473918  0.82978271  0.60489605     0.46200
H896        H  0.12377044  0.81036102  0.62491188    -0.02800
C897        C  0.10639893  0.88400889  0.55389016    -0.16500
C898        C  0.05261779  0.88237457  0.60420018    -0.16300
C899        C  0.05480814  0.83003483  0.54993438    -0.16700
C900        C  0.12999141  0.85945928  0.57792786    -0.16600
C901        C  0.07512129  0.85778206  0.62887958    -0.16200
C902        C  0.07796451  0.80542589  0.57423514    -0.16500
C903        C  0.37331222  0.87360826  0.55936797     0.46200
H904        H  0.39165134  0.89354239  0.53974384    -0.02800
C905        C  0.32970795  0.82646660  0.60323552     0.46200
H906        H  0.31089118  0.80605161  0.62237340    -0.02800
C907        C  0.38175541  0.82866565  0.55087991    -0.16500
C908        C  0.38194746  0.87950107  0.60458551    -0.16300
C909        C  0.32808635  0.88153536  0.55304996    -0.16700
C910        C  0.35811230  0.80331000  0.57349285    -0.16600
C911        C  0.35833050  0.85479905  0.62851795    -0.16200
C912        C  0.30448163  0.85605432  0.57605456    -0.16500
C913        C  0.06026108  0.55977526  0.55912066     0.46200
H914        H  0.04149202  0.53958773  0.54001801    -0.02800
C915        C  0.10390610  0.60448150  0.60566031     0.46200
H916        H  0.12306286  0.62367139  0.62580258    -0.02800
C917        C  0.10548056  0.55293961  0.55205259    -0.16500
C918        C  0.05340158  0.60506358  0.55098532    -0.16300
C919        C  0.05101463  0.55257105  0.60403103    -0.16700
C920        C  0.12911931  0.57627282  0.57726795    -0.16600
C921        C  0.07641577  0.62945932  0.57595800    -0.16200
C922        C  0.07460591  0.57570830  0.62905048    -0.16500
C923        C  0.37245377  0.55874763  0.55891638     0.46200
H924        H  0.39130228  0.53917060  0.53945829    -0.02800
C925        C  0.32890269  0.60483594  0.60379984     0.46200
H926        H  0.30999093  0.62512853  0.62296001    -0.02800
C927        C  0.32726979  0.55409787  0.54945134    -0.16500
C928        C  0.37808297  0.54919493  0.60411220    -0.16300
C929        C  0.38291708  0.60368916  0.55331052    -0.16700
C930        C  0.30368821  0.57811944  0.57393028    -0.16600
C931        C  0.35510281  0.57395130  0.62843122    -0.16200
C932        C  0.35931354  0.62848335  0.57653384    -0.16500
O933        O  0.99437795  0.51503703  0.58428916    -0.71000
O934        O  0.43794031  0.91734663  0.58503328    -0.71300
O935        O  0.41747211  0.49418536  0.58452703    -0.71100
O936        O  0.01427699  0.93805251  0.58464606    -0.71100
O937        O  0.00511668  0.92162202  0.64757020    -0.71100
O938        O  0.42720088  0.51111209  0.64729766    -0.71100
O939        O  0.42185069  0.92720004  0.64785446    -0.71100
O940        O  0.01088076  0.50555183  0.64724659    -0.71200
V941        V  0.46600247  0.96619904  0.58569203     1.35200
V942        V  0.46628496  0.96643821  0.64781390     1.35200
C943        C  0.01708645  0.52402294  0.61368931     0.78200
C944        C  0.41560473  0.90831482  0.61452289     0.78200
C945        C  0.40801126  0.51651322  0.61396610     0.78100
C946        C  0.02350330  0.91555483  0.61405400     0.78100
O947        O  0.01113218  0.50599917  0.78450295    -0.71000
O948        O  0.42193575  0.92778519  0.78474929    -0.71300
O949        O  0.42760058  0.51208036  0.78463293    -0.71100
O950        O  0.00552594  0.92233073  0.78473682    -0.71100
O951        O  0.01495630  0.93911391  0.84761168    -0.71100
O952        O  0.41812414  0.49543715  0.84738782    -0.71100
O953        O  0.43826837  0.91830607  0.84764152    -0.71100
O954        O  0.99475932  0.51587856  0.84732467    -0.71200
V955        V  0.46646674  0.96703125  0.78430692     1.35200
V956        V  0.46652038  0.96716696  0.84640721     1.35200
C957        C  0.01741588  0.52457689  0.81800245     0.78200
C958        C  0.41565347  0.90918475  0.81824027     0.78200
C959        C  0.40890753  0.51808596  0.81805098     0.78100
C960        C  0.02446354  0.91680625  0.81817930     0.78100
O961        O  0.08692437  0.49511799  0.91758791    -0.71000
O962        O  0.08751990  0.94004860  0.51563648    -0.71300
O963        O  0.08729050  0.51661078  0.49424736    -0.71100
O964        O  0.08711045  0.91822710  0.93900927    -0.71100
O965        O  0.14932092  0.92850812  0.92187035    -0.71100
O966        O  0.14945321  0.50630968  0.51193184    -0.71100
O967        O  0.14972475  0.92259075  0.50553701    -0.71100
O968        O  0.14913260  0.51280284  0.92773871    -0.71200
V969        V  0.08819666  0.96748225  0.96661156     1.35200
V970        V  0.14988511  0.96761371  0.96668847     1.35200
C971        C  0.11577924  0.51838113  0.90874309     0.78200
C972        C  0.11661283  0.91719239  0.52469132     0.78200
C973        C  0.11611601  0.52504652  0.51775888     0.78100
C974        C  0.11610372  0.90938149  0.91604092     0.78100
O975        O  0.43841942  0.58394614  0.51498498    -0.71000
O976        O  0.99564210  0.58479051  0.91838926    -0.71300
O977        O  0.01517731  0.58501071  0.49531221    -0.71100
O978        O  0.41887507  0.58383714  0.93777538    -0.71100
O979        O  0.42750700  0.64723364  0.92198484    -0.71100
O980        O  0.00533187  0.64803345  0.51159241    -0.71100
O981        O  0.01118900  0.64810895  0.92783221    -0.71100
O982        O  0.42211245  0.64713489  0.50578111    -0.71200
V983        V  0.46701758  0.58552113  0.96663416     1.35200
V984        V  0.46651338  0.64789129  0.96675080     1.35200
C985        C  0.41616894  0.61348577  0.52432896     0.78200
C986        C  0.01779824  0.61454532  0.90935010     0.78200
C987        C  0.02423067  0.61469357  0.51765754     0.78100
C988        C  0.40922603  0.61348309  0.91567416     0.78100
O989        O  0.28329997  0.51132141  0.92735518    -0.71000
O990        O  0.28412333  0.92079472  0.50503624    -0.71300
O991        O  0.28371505  0.50517330  0.51116262    -0.71100
O992        O  0.28373552  0.92739535  0.92105434    -0.71100
O993        O  0.34596280  0.91725982  0.93847455    -0.71100
O994        O  0.34577668  0.51570102  0.49342725    -0.71100
O995        O  0.34622005  0.93877388  0.51529938    -0.71100
O996        O  0.34548247  0.49398899  0.91704478    -0.71200
V997        V  0.28322594  0.96610998  0.96620085     1.35200
V998        V  0.34488792  0.96640328  0.96611243     1.35200
C999        C  0.31646020  0.51711243  0.90833018     0.78200
C1000       C  0.31743332  0.91537453  0.52416765     0.78200
C1001       C  0.31682782  0.52468827  0.51634081     0.78100
C1002       C  0.31710689  0.90880788  0.91499366     0.78100
O1003       O  0.41892401  0.84941887  0.93750276    -0.71000
O1004       O  0.01526791  0.84989862  0.49485693    -0.71300
O1005       O  0.99552282  0.84985954  0.91786458    -0.71100
O1006       O  0.43825907  0.84919475  0.51436845    -0.71100
O1007       O  0.42265497  0.78588785  0.50455589    -0.71100
O1008       O  0.01178672  0.78668567  0.92715992    -0.71100
O1009       O  0.00624322  0.78670119  0.51093703    -0.71100
O1010       O  0.42841155  0.78621591  0.92132442    -0.71200
V1011       V  0.46702687  0.84848513  0.96618214     1.35200
V1012       V  0.46733427  0.78610592  0.96603068     1.35200
C1013       C  0.40966096  0.81968497  0.91536418     0.79400
C1014       C  0.02492887  0.82029359  0.51698312     0.78200
C1015       C  0.01772719  0.82027729  0.90856481     0.78100
C1016       C  0.41586061  0.81943111  0.52286471     0.78100
C1017       C  0.19428974  0.58304198  0.53926382    -0.20600
C1018       C  0.17384109  0.57736944  0.57618677    -0.08600
C1019       C  0.19629806  0.57396116  0.61234423     0.30200
C1020       C  0.23854361  0.57425339  0.61121224    -0.20600
C1021       C  0.25897493  0.57824651  0.57413481    -0.08600
C1022       C  0.23657170  0.58363490  0.53826597     0.30200
F1023       F  0.25562219  0.59077125  0.50262459    -0.19200
H1024       H  0.17749651  0.58753861  0.51129355     0.18600
H1025       H  0.25538134  0.57074283  0.63930700     0.18600
F1026       F  0.17745859  0.56938246  0.64864914    -0.19100
C1027       C  0.38723449  0.73793113  0.59817048    -0.20600
C1028       C  0.36069641  0.75855091  0.57200541    -0.08600
C1029       C  0.33549375  0.73625064  0.54573577     0.30200
C1030       C  0.33537249  0.69369674  0.54726448    -0.20600
C1031       C  0.36080113  0.67316094  0.57453519    -0.08600
C1032       C  0.38718754  0.69534190  0.59964456     0.30200
F1033       F  0.41243765  0.67582939  0.62577132    -0.19200
H1034       H  0.40764778  0.75486507  0.61769132     0.18600
H1035       H  0.31535082  0.67669427  0.52734004     0.18600
F1036       F  0.31109002  0.75560937  0.51871107    -0.19100
C1037       C  0.08000125  0.69547259  0.53733964    -0.20600
C1038       C  0.07702716  0.67454925  0.57451505    -0.08600
C1039       C  0.07666077  0.69701881  0.61077871     0.30200
C1040       C  0.07703079  0.73927760  0.60986706    -0.20600
C1041       C  0.07798434  0.76038020  0.57302137    -0.08600
C1042       C  0.08080728  0.73816991  0.53651008     0.30200
F1043       F  0.08611671  0.75748025  0.50043408    -0.19200
H1044       H  0.08265405  0.67877584  0.50906978     0.18600
H1045       H  0.07665258  0.75545487  0.63834961     0.18600
F1046       F  0.07575529  0.67844490  0.64742546    -0.19100
C1047       C  0.23933155  0.89432199  0.58220662    -0.20600
C1048       C  0.25973492  0.85717168  0.57696459    -0.08600
C1049       C  0.23718385  0.82092278  0.57405998     0.30200
C1050       C  0.19499801  0.82216657  0.57429663    -0.20600
C1051       C  0.17463341  0.85939250  0.57806992    -0.08600
C1052       C  0.19705443  0.89547712  0.58306128     0.30200
F1053       F  0.17818781  0.93151502  0.59006202    -0.19200
H1054       H  0.25618689  0.92236583  0.58634924     0.18600
H1055       H  0.17813867  0.79398087  0.57109374     0.18600
F1056       F  0.25575294  0.78430708  0.57036583    -0.19100
C1057       C  0.06018856  0.82532246  0.69550612    -0.20600
C1058       C  0.07379048  0.85929966  0.67369412    -0.08600
C1059       C  0.08683169  0.89413954  0.69486229     0.30200
C1060       C  0.08711259  0.89440136  0.73740700    -0.20600
C1061       C  0.07484488  0.85972186  0.75909361    -0.08600
C1062       C  0.06114342  0.82524934  0.73791625     0.30200
F1063       F  0.04794417  0.79184463  0.75828512    -0.19200
H1064       H  0.04816901  0.79907842  0.67979349     0.18600
H1065       H  0.09762533  0.92127313  0.75344958     0.18600
F1066       F  0.09999254  0.92744047  0.67433687    -0.19100
C1067       C  0.09174306  0.54312528  0.73782106    -0.20600
C1068       C  0.07341067  0.57523027  0.75904296    -0.08600
C1069       C  0.05326464  0.60601313  0.73753194     0.30200
C1070       C  0.05204974  0.60494843  0.69508795    -0.20600
C1071       C  0.07237624  0.57423125  0.67376119    -0.08600
C1072       C  0.09156721  0.54278656  0.69531187     0.30200
F1073       F  0.11049306  0.51219640  0.67517689    -0.19200
H1074       H  0.10676206  0.51879692  0.75421293     0.18600
H1075       H  0.03507069  0.62795642  0.67890317     0.18600
F1076       F  0.03452572  0.63677742  0.75760949    -0.19100
C1077       C  0.10667585  0.73874316  0.87303541    -0.20600
C1078       C  0.07313898  0.76009765  0.85800985    -0.08600
C1079       C  0.03907114  0.73828187  0.84437273     0.30200
C1080       C  0.03937824  0.69556303  0.84468196    -0.20600
C1081       C  0.07378973  0.67440759  0.85820124    -0.08600
C1082       C  0.10736762  0.69622509  0.87256938     0.30200
F1083       F  0.14051494  0.67635298  0.88682772    -0.19200
H1084       H  0.13203389  0.75493243  0.88589624     0.18600
H1085       H  0.01315431  0.67897124  0.83373061     0.18600
F1086       F  0.00594571  0.75824431  0.83023479    -0.19100
C1087       C  0.35239000  0.53816612  0.73820513    -0.20600
C1088       C  0.35613558  0.57541620  0.75895811    -0.08600
C1089       C  0.35762095  0.61177105  0.73646982     0.30200
C1090       C  0.35758700  0.61066750  0.69414591    -0.20600
C1091       C  0.35536683  0.57346992  0.67335808    -0.08600
C1092       C  0.35171477  0.53710818  0.69569700     0.30200
F1093       F  0.34596709  0.50088846  0.67660440    -0.19200
H1094       H  0.34910734  0.50997742  0.75496331     0.18600
H1095       H  0.35958137  0.63909182  0.67754677     0.18600
F1096       F  0.35954208  0.64849303  0.75519769    -0.19100
C1097       C  0.19504884  0.58674601  0.89169004    -0.20600
C1098       C  0.17356175  0.57590223  0.85646282    -0.08600
C1099       C  0.19496002  0.56599204  0.82096069     0.30200
C1100       C  0.23733096  0.56596394  0.82112419    -0.20600
C1101       C  0.25870213  0.57598824  0.85661063    -0.08600
C1102       C  0.23736460  0.58719789  0.89160814     0.30200
F1103       F  0.25766738  0.60004913  0.92506096    -0.19200
H1104       H  0.17899307  0.59564251  0.91894771     0.18600
H1105       H  0.25350811  0.55791978  0.79367572     0.18600
F1106       F  0.17490389  0.55577270  0.78638724    -0.19100
C1107       C  0.36317453  0.81931226  0.73810909    -0.20600
C1108       C  0.35890512  0.85625947  0.75906720    -0.08600
C1109       C  0.35277451  0.89235914  0.73696031     0.30200
C1110       C  0.35316014  0.89167194  0.69452694    -0.20600
C1111       C  0.35898914  0.85498102  0.67348705    -0.08600
C1112       C  0.36293468  0.81854323  0.69562753     0.30200
F1113       F  0.36669865  0.78224110  0.67637248    -0.19200
H1114       H  0.36667900  0.79101346  0.75468859     0.18600
H1115       H  0.34777338  0.91966275  0.67797798     0.18600
F1116       F  0.34461084  0.92790652  0.75634672    -0.19100
C1117       C  0.23809842  0.89416976  0.85117964    -0.20600
C1118       C  0.25936425  0.85741326  0.85591341    -0.08600
C1119       C  0.23765241  0.82078291  0.85870717     0.30200
C1120       C  0.19550660  0.82117153  0.85889719    -0.20600
C1121       C  0.17414201  0.85792445  0.85666498    -0.08600
C1122       C  0.19574989  0.89449578  0.85134462     0.30200
F1123       F  0.17602059  0.93012725  0.84448613    -0.19200
H1124       H  0.25431528  0.92250182  0.84657094     0.18600
H1125       H  0.17971152  0.79257439  0.86073495     0.18600
F1126       F  0.25702901  0.78451784  0.86162906    -0.19100
C1127       C  0.33499482  0.69508440  0.88820200    -0.20600
C1128       C  0.35926244  0.67375286  0.86054682    -0.08600
C1129       C  0.38520952  0.69537047  0.83461956     0.30200
C1130       C  0.38456778  0.73795413  0.83419475    -0.20600
C1131       C  0.35912615  0.75930897  0.86063463    -0.08600
C1132       C  0.33539835  0.73776292  0.88875037     0.30200
F1133       F  0.31256410  0.75797053  0.91641908    -0.19200
H1134       H  0.31570184  0.67865119  0.90914462     0.18600
H1135       H  0.40400114  0.75433264  0.81334840     0.18600
F1136       F  0.41130114  0.67528918  0.80997334    -0.19100
C1137       C  0.87293488  0.37420652  0.37343801     0.46200
H1138       H  0.89165443  0.39468843  0.39228917    -0.02800
C1139       C  0.82934334  0.32775497  0.32850138     0.46200
H1140       H  0.81056693  0.30758851  0.30892031    -0.02800
C1141       C  0.82773002  0.38107695  0.38049153    -0.16500
C1142       C  0.88169176  0.38052650  0.32821907    -0.16300
C1143       C  0.88032805  0.32916967  0.38238407    -0.16700
C1144       C  0.80410065  0.35704075  0.35591346    -0.16600
C1145       C  0.85793381  0.35631107  0.30395228    -0.16200
C1146       C  0.85751119  0.30410570  0.35842068    -0.16500
C1147       C  0.87204457  0.05874762  0.37345500     0.46200
H1148       H  0.89130092  0.03938033  0.39278443    -0.02800
C1149       C  0.82852851  0.10546206  0.32890037     0.46200
H1150       H  0.80934138  0.12575932  0.30993689    -0.02800
C1151       C  0.82690780  0.05112583  0.37993836    -0.16500
C1152       C  0.87981121  0.10382042  0.38244893    -0.16300
C1153       C  0.87961602  0.05146137  0.32812169    -0.16700
C1154       C  0.80334168  0.07637413  0.35658767    -0.16600
C1155       C  0.85722105  0.12892229  0.35845791    -0.16200
C1156       C  0.85661046  0.07656906  0.30395334    -0.16500
C1157       C  0.55980261  0.05974306  0.37311782     0.46200
H1158       H  0.54132828  0.04006597  0.39287749    -0.02800
C1159       C  0.60385583  0.10538016  0.32806752     0.46200
H1160       H  0.62282086  0.12522994  0.30846103    -0.02800
C1161       C  0.60510137  0.05215206  0.37998807    -0.16500
C1162       C  0.55133193  0.05279375  0.32805529    -0.16300
C1163       C  0.55134385  0.10490392  0.38047632    -0.16700
C1164       C  0.62884110  0.07677214  0.35637590    -0.16600
C1165       C  0.57524353  0.07633656  0.30370388    -0.16200
C1166       C  0.57515026  0.12954620  0.35701101    -0.16500
C1167       C  0.56056145  0.37509369  0.37330436     0.46200
H1168       H  0.54176316  0.39468578  0.39277951    -0.02800
C1169       C  0.60410733  0.32913217  0.32823487     0.46200
H1170       H  0.62285742  0.30921794  0.30852361    -0.02800
C1171       C  0.60571900  0.38070828  0.38207131    -0.16500
C1172       C  0.55080140  0.32997057  0.37943568    -0.16300
C1173       C  0.55415552  0.38407243  0.32818433    -0.16700
C1174       C  0.62937427  0.35716416  0.35716359    -0.16600
C1175       C  0.57454886  0.30509399  0.35633601    -0.16200
C1176       C  0.57665984  0.35914328  0.30383571    -0.16500
C1177       C  0.56134654  0.37531640  0.05918741     0.46200
H1178       H  0.54209751  0.39440586  0.03960217    -0.02800
C1179       C  0.60473858  0.32978254  0.10489656     0.46200
H1180       H  0.62376936  0.31036048  0.12491243    -0.02800
C1181       C  0.60639885  0.38400916  0.05389117    -0.16500
C1182       C  0.55261720  0.38237434  0.10420058    -0.16300
C1183       C  0.55480776  0.33003519  0.04993461    -0.16700
C1184       C  0.62999113  0.35945942  0.07792898    -0.16600
C1185       C  0.57512047  0.35778161  0.12887992    -0.16200
C1186       C  0.57796401  0.30542619  0.07423524    -0.16500
C1187       C  0.87331221  0.37360917  0.05936740     0.46200
H1188       H  0.89165137  0.39354341  0.03974337    -0.02800
C1189       C  0.82970800  0.32646717  0.10323467     0.46200
H1190       H  0.81089132  0.30605208  0.12237252    -0.02800
C1191       C  0.88175534  0.32866653  0.05087904    -0.16500
C1192       C  0.88194742  0.37950169  0.10458504    -0.16300
C1193       C  0.82808627  0.38153635  0.05304953    -0.16700
C1194       C  0.85811211  0.30331067  0.07349170    -0.16600
C1195       C  0.85833060  0.35479936  0.12851731    -0.16200
C1196       C  0.80448158  0.35605516  0.07605409    -0.16500
C1197       C  0.56026076  0.05977602  0.05912007     0.46200
H1198       H  0.54149166  0.03958838  0.04001759    -0.02800
C1199       C  0.60390580  0.10448260  0.10565940     0.46200
H1200       H  0.62306228  0.12367286  0.12580157    -0.02800
C1201       C  0.60548023  0.05294054  0.05205176    -0.16500
C1202       C  0.55340093  0.10506432  0.05098477    -0.16300
C1203       C  0.55101471  0.05257172  0.10403048    -0.16700
C1204       C  0.62911906  0.07627412  0.07726679    -0.16600
C1205       C  0.57641509  0.12946015  0.07595731    -0.16200
C1206       C  0.57460603  0.07570907  0.12904970    -0.16500
C1207       C  0.87245377  0.05874748  0.05891542     0.46200
H1208       H  0.89130230  0.03917069  0.03945718    -0.02800
C1209       C  0.82890266  0.10483532  0.10379937     0.46200
H1210       H  0.80999104  0.12512761  0.12295988    -0.02800
C1211       C  0.82726973  0.05409724  0.04945073    -0.16500
C1212       C  0.87808344  0.04919464  0.10411109    -0.16300
C1213       C  0.88291666  0.10368921  0.05330981    -0.16700
C1214       C  0.80368814  0.07811871  0.07392983    -0.16600
C1215       C  0.85510336  0.07395072  0.12843035    -0.16200
C1216       C  0.85931296  0.12848326  0.07653314    -0.16500
O1217       O  0.49437821  0.01503740  0.08428916    -0.71000
O1218       O  0.93794024  0.41734765  0.08503343    -0.71300
O1219       O  0.91747259  0.99418513  0.08452571    -0.71100
O1220       O  0.51427586  0.43805155  0.08464624    -0.71100
O1221       O  0.50511595  0.42162164  0.14757059    -0.71100
O1222       O  0.92720129  0.01111160  0.14729642    -0.71100
O1223       O  0.92184992  0.42720085  0.14785450    -0.71100
O1224       O  0.51088126  0.00555248  0.14724656    -0.71200
V1225       V  0.96600217  0.46620019  0.08569276     1.35200
V1226       V  0.96628413  0.46643905  0.14781459     1.35200
C1227       C  0.51708676  0.02402349  0.11368915     0.78200
C1228       C  0.91560443  0.40831564  0.11452280     0.78200
C1229       C  0.90801179  0.01651293  0.11396481     0.78100
C1230       C  0.52350248  0.41555429  0.11405436     0.78100
O1231       O  0.51113158  0.00599842  0.28450275    -0.71000
O1232       O  0.92193600  0.42778518  0.28474933    -0.71300
O1233       O  0.92760150  0.01208066  0.28463238    -0.71100
O1234       O  0.50552578  0.42233003  0.28473733    -0.71100
O1235       O  0.51495553  0.43911242  0.34761250    -0.71100
O1236       O  0.91812558  0.99543724  0.34738735    -0.71100
O1237       O  0.93826856  0.41830605  0.34764157    -0.71100
O1238       O  0.49475844  0.01587848  0.34732431    -0.71200
V1239       V  0.96646682  0.46703142  0.28430719     1.35200
V1240       V  0.96652016  0.46716722  0.34640745     1.35200
C1241       C  0.51741510  0.02457652  0.31800204     0.78200
C1242       C  0.91565391  0.40918447  0.31824020     0.78200
C1243       C  0.90890856  0.01808591  0.31805053     0.78100
C1244       C  0.52446306  0.41680517  0.31817991     0.78100
O1245       O  0.58692438  0.99511765  0.41758783    -0.71000
O1246       O  0.58752015  0.44004951  0.01563815    -0.71300
O1247       O  0.58728995  0.01661053  0.99424726    -0.71100
O1248       O  0.58711058  0.41822692  0.43900924    -0.71100
O1249       O  0.64932129  0.42850776  0.42187120    -0.71100
O1250       O  0.64945284  0.00631009  0.01193151    -0.71100
O1251       O  0.64972467  0.42259093  0.00553806    -0.71100
O1252       O  0.64913258  0.01280301  0.42773809    -0.71200
V1253       V  0.58819648  0.46748197  0.46661184     1.35200
V1254       V  0.64988495  0.46761329  0.46668943     1.35200
C1255       C  0.61577915  0.01838075  0.40874242     0.78200
C1256       C  0.61661292  0.41719294  0.02469272     0.78200
C1257       C  0.61611556  0.02504678  0.01775851     0.78100
C1258       C  0.61610408  0.40938137  0.41604112     0.78100
O1259       O  0.93841965  0.08394650  0.01498518    -0.71000
O1260       O  0.49564239  0.08479062  0.41838807    -0.71300
O1261       O  0.51517646  0.08501110  0.99531205    -0.71100
O1262       O  0.91887446  0.08383640  0.43777536    -0.71100
O1263       O  0.92750608  0.14723301  0.42198518    -0.71100
O1264       O  0.50533122  0.14803405  0.01159159    -0.71100
O1265       O  0.51118958  0.14810898  0.42783102    -0.71100
O1266       O  0.92211214  0.14713506  0.00578089    -0.71200
V1267       V  0.96701671  0.08552065  0.46663469     1.35200
V1268       V  0.96651242  0.14789086  0.46675128     1.35200
C1269       C  0.91616878  0.11348597  0.02432876     0.78200
C1270       C  0.51779869  0.11454530  0.40934891     0.78200
C1271       C  0.52422991  0.11469416  0.01765706     0.78100
C1272       C  0.90922540  0.11348235  0.41567415     0.78100
O1273       O  0.78329977  0.01132118  0.42735482    -0.71000
O1274       O  0.78412317  0.42079550  0.00503572    -0.71300
O1275       O  0.78371504  0.00517213  0.01116227    -0.71100
O1276       O  0.78373579  0.42739516  0.42105345    -0.71100
O1277       O  0.84596308  0.41725980  0.43847364    -0.71100
O1278       O  0.84577665  0.01569992  0.99342688    -0.71100
O1279       O  0.84621967  0.43877526  0.01529920    -0.71100
O1280       O  0.84548226  0.99398886  0.41704430    -0.71200
V1281       V  0.78322614  0.46610993  0.46619992     1.35200
V1282       V  0.84488816  0.46640308  0.46611179     1.35200
C1283       C  0.81645989  0.01711205  0.40832952     0.78200
C1284       C  0.81743310  0.41537561  0.02416732     0.78200
C1285       C  0.81682779  0.02468721  0.01634043     0.78100
C1286       C  0.81710722  0.40880775  0.41499276     0.78100
O1287       O  0.91892260  0.34941814  0.43750401    -0.71000
O1288       O  0.51526558  0.34989892  0.99485861    -0.71300
O1289       O  0.49552358  0.34985899  0.41786433    -0.71100
O1290       O  0.93825943  0.34919547  0.01436792    -0.71100
O1291       O  0.92265467  0.28588876  0.00455495    -0.71100
O1292       O  0.51178731  0.28668522  0.42716033    -0.71100
O1293       O  0.50624216  0.28670120  0.01093840    -0.71100
O1294       O  0.92841083  0.28621531  0.42132549    -0.71200
V1295       V  0.96702546  0.34848474  0.46618343     1.35200
V1296       V  0.96733331  0.28610552  0.46603186     1.35200
C1297       C  0.90966014  0.31968427  0.41536510     0.79400
C1298       C  0.52492751  0.32029383  0.01698427     0.78200
C1299       C  0.51772811  0.32027668  0.40856503     0.78100
C1300       C  0.91586060  0.31943199  0.02286392     0.78100
C1301       C  0.69428981  0.08304087  0.03926243    -0.20600
C1302       C  0.67384088  0.07737072  0.07618560    -0.08600
C1303       C  0.69629772  0.07396448  0.11234337     0.30200
C1304       C  0.73854325  0.07425590  0.11121157    -0.20600
C1305       C  0.75897480  0.07824631  0.07413406    -0.08600
C1306       C  0.73657180  0.08363303  0.03826482     0.30200
F1307       F  0.75562266  0.09076683  0.00262322    -0.19200
H1308       H  0.67749679  0.08753615  0.01129170     0.18600
H1309       H  0.75538075  0.07074674  0.13930664     0.18600
F1310       F  0.67745821  0.06938829  0.14864851    -0.19100
C1311       C  0.88723420  0.23793152  0.09816893    -0.20600
C1312       C  0.86069601  0.25855140  0.07200406    -0.08600
C1313       C  0.83549249  0.23625102  0.04573528     0.30200
C1314       C  0.83537098  0.19369701  0.04726430    -0.20600
C1315       C  0.86080015  0.17316112  0.07453457    -0.08600
C1316       C  0.88718691  0.19534226  0.09964344     0.30200
F1317       F  0.91243676  0.17582999  0.12577058    -0.19200
H1318       H  0.90764772  0.25486541  0.11768954     0.18600
H1319       H  0.81534875  0.17669458  0.02734052     0.18600
F1320       F  0.81108791  0.25560972  0.01871131    -0.19100
C1321       C  0.58000268  0.19547343  0.03733936    -0.20600
C1322       C  0.57702608  0.17455002  0.07451452    -0.08600
C1323       C  0.57665659  0.19701942  0.11077824     0.30200
C1324       C  0.57702591  0.23927825  0.10986690    -0.20600
C1325       C  0.57798309  0.26038075  0.07302134    -0.08600
C1326       C  0.58080895  0.23817077  0.03651016     0.30200
F1327       F  0.58612110  0.25748156  0.00043479    -0.19200
H1328       H  0.58265728  0.17877678  0.00906965     0.18600
H1329       H  0.57664445  0.25545573  0.13834933     0.18600
F1330       F  0.57574920  0.17844529  0.14742475    -0.19100
C1331       C  0.73933130  0.39432277  0.08220644    -0.20600
C1332       C  0.75973480  0.35717248  0.07696468    -0.08600
C1333       C  0.73718380  0.32092340  0.07406168     0.30200
C1334       C  0.69499796  0.32216693  0.07429901    -0.20600
C1335       C  0.67463321  0.35939282  0.07807156    -0.08600
C1336       C  0.69705415  0.39547761  0.08306198     0.30200
F1337       F  0.67818748  0.43151543  0.09006283    -0.19200
H1338       H  0.75618651  0.42236672  0.08634830     0.18600
H1339       H  0.67813876  0.29398107  0.07109700     0.18600
F1340       F  0.75575294  0.28430767  0.07036845    -0.19100
C1341       C  0.56018063  0.32532486  0.19550624    -0.20600
C1342       C  0.57378964  0.35929925  0.17369431    -0.08600
C1343       C  0.58683851  0.39413626  0.19486228     0.30200
C1344       C  0.58711948  0.39439824  0.23740699    -0.20600
C1345       C  0.57484423  0.35972154  0.25909369    -0.08600
C1346       C  0.56113524  0.32525188  0.23791648     0.30200
F1347       F  0.54792903  0.29185017  0.25828566    -0.19200
H1348       H  0.54815669  0.29908283  0.17979335     0.18600
H1349       H  0.59763812  0.42126767  0.25344948     0.18600
F1350       F  0.60000697  0.42743398  0.17433654    -0.19100
C1351       C  0.59174265  0.04312503  0.23781988    -0.20600
C1352       C  0.57340977  0.07522962  0.25904194    -0.08600
C1353       C  0.55326398  0.10601278  0.23753115     0.30200
C1354       C  0.55204929  0.10494840  0.19508719    -0.20600
C1355       C  0.57237645  0.07423179  0.17376031    -0.08600
C1356       C  0.59156743  0.04278699  0.19531072     0.30200
F1357       F  0.61049370  0.01219723  0.17517554    -0.19200
H1358       H  0.60676163  0.01879663  0.25421153     0.18600
H1359       H  0.53506958  0.12795593  0.17890262     0.18600
F1360       F  0.53452509  0.13677705  0.25760881    -0.19100
C1361       C  0.60667842  0.23874218  0.37303262    -0.20600
C1362       C  0.57314072  0.26009714  0.35800953    -0.08600
C1363       C  0.53907199  0.23828171  0.34437414     0.30200
C1364       C  0.53937881  0.19556287  0.34468285    -0.20600
C1365       C  0.57379094  0.17440697  0.35819982    -0.08600
C1366       C  0.60736997  0.19622410  0.37256594     0.30200
F1367       F  0.64051809  0.17635157  0.38682187    -0.19200
H1368       H  0.63203738  0.25493111  0.38589234     0.18600
H1369       H  0.51315405  0.17897138  0.33373294     0.18600
F1370       F  0.50594593  0.25824460  0.33023839    -0.19100
C1371       C  0.85239023  0.03816535  0.23820425    -0.20600
C1372       C  0.85613738  0.07541529  0.25895725    -0.08600
C1373       C  0.85762532  0.11176996  0.23646902     0.30200
C1374       C  0.85759061  0.11066654  0.19414505    -0.20600
C1375       C  0.85536819  0.07346911  0.17335720    -0.08600
C1376       C  0.85171505  0.03710746  0.19569606     0.30200
F1377       F  0.84596640  0.00088790  0.17660339    -0.19200
H1378       H  0.84910642  0.00997686  0.25496244     0.18600
H1379       H  0.85958616  0.13909057  0.17754599     0.18600
F1380       F  0.85954979  0.14849169  0.25519706    -0.19100
C1381       C  0.69504876  0.08674597  0.39168742    -0.20600
C1382       C  0.67356167  0.07590068  0.35646072    -0.08600
C1383       C  0.69495997  0.06598885  0.32095900     0.30200
C1384       C  0.73733098  0.06596097  0.32112251    -0.20600
C1385       C  0.75870213  0.07598690  0.35660857    -0.08600
C1386       C  0.73736448  0.08719776  0.39160564     0.30200
F1387       F  0.75766706  0.10005008  0.42505821    -0.19200
H1388       H  0.67899295  0.09564360  0.41894474     0.18600
H1389       H  0.75350821  0.05791570  0.29367431     0.18600
F1390       F  0.67490382  0.05576790  0.28638602    -0.19100
C1391       C  0.86317477  0.31931138  0.23810828    -0.20600
C1392       C  0.85890603  0.35625851  0.25906679    -0.08600
C1393       C  0.85277530  0.39235832  0.23696022     0.30200
C1394       C  0.85316067  0.39167153  0.19452683    -0.20600
C1395       C  0.85898933  0.35498082  0.17348650    -0.08600
C1396       C  0.86293445  0.31854275  0.19562662     0.30200
F1397       F  0.86669771  0.28224081  0.17637104    -0.19200
H1398       H  0.86667909  0.29101242  0.25468753     0.18600
H1399       H  0.84777382  0.41966247  0.17797823     0.18600
F1400       F  0.84461142  0.42790546  0.25634696    -0.19100
C1401       C  0.73809939  0.39417017  0.35117915    -0.20600
C1402       C  0.75936494  0.35741334  0.35591179    -0.08600
C1403       C  0.73765282  0.32078306  0.35870404     0.30200
C1404       C  0.69550712  0.32117207  0.35889415    -0.20600
C1405       C  0.67414273  0.35792520  0.35666384    -0.08600
C1406       C  0.69575087  0.39449661  0.35134471     0.30200
F1407       F  0.67602193  0.43012854  0.34448762    -0.19200
H1408       H  0.75431643  0.42250221  0.34657108     0.18600
H1409       H  0.67971188  0.29257484  0.36073054     0.18600
F1410       F  0.75702899  0.28451762  0.36162418    -0.19100
C1411       C  0.83499270  0.19508336  0.38819999    -0.20600
C1412       C  0.85926222  0.17375193  0.36054645    -0.08600
C1413       C  0.88521148  0.19536959  0.33462142     0.30200
C1414       C  0.88456987  0.23795327  0.33419674    -0.20600
C1415       C  0.85912629  0.25930807  0.36063482    -0.08600
C1416       C  0.83539647  0.23776187  0.38874877     0.30200
F1417       F  0.81256070  0.25796938  0.41641626    -0.19200
H1418       H  0.81569812  0.17865000  0.40914119     0.18600
H1419       H  0.90400469  0.25433181  0.31335189     0.18600
F1420       F  0.91130501  0.17528833  0.30997720    -0.19100
C1421       C  0.87293358  0.37420723  0.87343841     0.46200
H1422       H  0.89165271  0.39468937  0.89228968    -0.02800
C1423       C  0.82934259  0.32775558  0.82850134     0.46200
H1424       H  0.81056639  0.30758910  0.80892008    -0.02800
C1425       C  0.82772864  0.38107664  0.88049226    -0.16500
C1426       C  0.88169019  0.38052800  0.82821964    -0.16300
C1427       C  0.88032784  0.32917039  0.88238353    -0.16700
C1428       C  0.80409953  0.35704055  0.85591394    -0.16600
C1429       C  0.85793242  0.35631270  0.80395264    -0.16200
C1430       C  0.85751128  0.30410630  0.85841994    -0.16500
C1431       C  0.87204531  0.05874783  0.87345460     0.46200
H1432       H  0.89130195  0.03938069  0.89278381    -0.02800
C1433       C  0.82852899  0.10546220  0.82890015     0.46200
H1434       H  0.80934176  0.12575936  0.80993676    -0.02800
C1435       C  0.82690853  0.05112654  0.87993882    -0.16500
C1436       C  0.87981234  0.10382082  0.88244789    -0.16300
C1437       C  0.87961591  0.05146074  0.82812129    -0.16700
C1438       C  0.80334219  0.07637501  0.85658839    -0.16600
C1439       C  0.85722233  0.12892261  0.85845667    -0.16200
C1440       C  0.85661027  0.07656855  0.80395307    -0.16500
C1441       C  0.55980215  0.05974422  0.87311769     0.46200
H1442       H  0.54132773  0.04006705  0.89287706    -0.02800
C1443       C  0.60385536  0.10538194  0.82806806     0.46200
H1444       H  0.62282029  0.12523204  0.80846188    -0.02800
C1445       C  0.60510093  0.05215328  0.87998816    -0.16500
C1446       C  0.55133174  0.05279514  0.82805502    -0.16300
C1447       C  0.55134323  0.10490496  0.88047672    -0.16700
C1448       C  0.62884080  0.07677382  0.85637649    -0.16600
C1449       C  0.57524315  0.07633841  0.80370392    -0.16200
C1450       C  0.57514953  0.12954757  0.85701170    -0.16500
C1451       C  0.56056043  0.37509498  0.87330547     0.46200
H1452       H  0.54176252  0.39468720  0.89278080    -0.02800
C1453       C  0.60410561  0.32913317  0.82823550     0.46200
H1454       H  0.62285538  0.30921879  0.80852408    -0.02800
C1455       C  0.60571816  0.38070913  0.88207203    -0.16500
C1456       C  0.55080016  0.32997197  0.87943684    -0.16300
C1457       C  0.55415405  0.38407352  0.82818539    -0.16700
C1458       C  0.62937302  0.35716501  0.85716395    -0.16600
C1459       C  0.57454725  0.30509525  0.85633703    -0.16200
C1460       C  0.57665802  0.35914438  0.80383653    -0.16500
C1461       C  0.56134627  0.37531667  0.55918749     0.46200
H1462       H  0.54209685  0.39440585  0.53960226    -0.02800
C1463       C  0.60473844  0.32978330  0.60489705     0.46200
H1464       H  0.62376921  0.31036128  0.62491311    -0.02800
C1465       C  0.60639851  0.38400958  0.55389109    -0.16500
C1466       C  0.55261703  0.38237487  0.60420066    -0.16300
C1467       C  0.55480797  0.33003539  0.54993475    -0.16700
C1468       C  0.62999090  0.35946025  0.57792929    -0.16600
C1469       C  0.57512018  0.35778235  0.62888030    -0.16200
C1470       C  0.57796415  0.30542663  0.57423568    -0.16500
C1471       C  0.87331226  0.37360854  0.55936806     0.46200
H1472       H  0.89165171  0.39354231  0.53974386    -0.02800
C1473       C  0.82970741  0.32646775  0.60323590     0.46200
H1474       H  0.81089050  0.30605322  0.62237407    -0.02800
C1475       C  0.88175518  0.32866572  0.55088057    -0.16500
C1476       C  0.88194718  0.37950181  0.60458562    -0.16300
C1477       C  0.82808648  0.38153603  0.55304964    -0.16700
C1478       C  0.85811175  0.30331046  0.57349369    -0.16600
C1479       C  0.85832995  0.35480026  0.62851815    -0.16200
C1480       C  0.80448140  0.35605548  0.57605454    -0.16500
C1481       C  0.56026092  0.05977605  0.55911971     0.46200
H1482       H  0.54149218  0.03958824  0.54001702    -0.02800
C1483       C  0.60390486  0.10448315  0.60565960     0.46200
H1484       H  0.62306087  0.12367367  0.62580209    -0.02800
C1485       C  0.60548053  0.05294083  0.55205218    -0.16500
C1486       C  0.55340120  0.10506431  0.55098404    -0.16300
C1487       C  0.55101403  0.05257188  0.60402996    -0.16700
C1488       C  0.62911877  0.07627477  0.57726741    -0.16600
C1489       C  0.57641462  0.12946044  0.57595696    -0.16200
C1490       C  0.57460467  0.07570963  0.62904951    -0.16500
C1491       C  0.87245317  0.05874720  0.55891536     0.46200
H1492       H  0.89130155  0.03917017  0.53945711    -0.02800
C1493       C  0.82890231  0.10483532  0.60379928     0.46200
H1494       H  0.80999077  0.12512772  0.62295978    -0.02800
C1495       C  0.82726911  0.05409742  0.54945047    -0.16500
C1496       C  0.87808273  0.04919437  0.60411110    -0.16300
C1497       C  0.88291643  0.10368889  0.55330987    -0.16700
C1498       C  0.80368767  0.07811900  0.57392960    -0.16600
C1499       C  0.85510270  0.07395060  0.62843027    -0.16200
C1500       C  0.85931290  0.12848306  0.57653331    -0.16500
O1501       O  0.49437814  0.01503650  0.58428804    -0.71000
O1502       O  0.93794003  0.41734734  0.58503361    -0.71300
O1503       O  0.91747276  0.99418535  0.58452598    -0.71100
O1504       O  0.51427630  0.43805268  0.58464650    -0.71100
O1505       O  0.50511625  0.42162217  0.64757071    -0.71100
O1506       O  0.92720089  0.01111185  0.64729677    -0.71100
O1507       O  0.92185006  0.42720071  0.64785474    -0.71100
O1508       O  0.51088074  0.00555212  0.64724565    -0.71200
V1509       V  0.96600226  0.46619963  0.58569267     1.35200
V1510       V  0.96628459  0.46643846  0.64781450     1.35200
C1511       C  0.51708633  0.02402306  0.61368822     0.78200
C1512       C  0.91560432  0.40831554  0.61452312     0.78200
C1513       C  0.90801146  0.01651299  0.61396505     0.78100
C1514       C  0.52350270  0.41555505  0.61405445     0.78100
O1515       O  0.51113219  0.00599906  0.78450196    -0.71000
O1516       O  0.92193516  0.42778608  0.78475014    -0.71300
O1517       O  0.92760129  0.01207958  0.78463207    -0.71100
O1518       O  0.50552398  0.42233040  0.78473831    -0.71100
O1519       O  0.51495384  0.43911319  0.84761339    -0.71100
O1520       O  0.91812494  0.99543578  0.84738687    -0.71100
O1521       O  0.93826743  0.41830682  0.84764245    -0.71100
O1522       O  0.49475927  0.01587835  0.84732366    -0.71200
V1523       V  0.96646645  0.46703179  0.78430790     1.35200
V1524       V  0.96651988  0.46716750  0.84640822     1.35200
C1525       C  0.51741559  0.02457705  0.81800141     0.78200
C1526       C  0.91565266  0.40918561  0.81824105     0.78200
C1527       C  0.90890811  0.01808473  0.81805012     0.78100
C1528       C  0.52446134  0.41680585  0.81818092     0.78100
O1529       O  0.58692328  0.99511880  0.91758758    -0.71000
O1530       O  0.58751944  0.44004879  0.51563662    -0.71300
O1531       O  0.58729138  0.01661156  0.49424693    -0.71100
O1532       O  0.58711080  0.41822661  0.93901103    -0.71100
O1533       O  0.64932106  0.42850820  0.92187174    -0.71100
O1534       O  0.64945383  0.00631050  0.51193230    -0.71100
O1535       O  0.64972435  0.42259097  0.50553758    -0.71100
O1536       O  0.64913189  0.01280276  0.92773744    -0.71200
V1537       V  0.58819675  0.46748205  0.96661295     1.35200
V1538       V  0.64988509  0.46761347  0.96669018     1.35200
C1539       C  0.61577838  0.01838148  0.90874222     0.78200
C1540       C  0.61661242  0.41719278  0.52469188     0.78200
C1541       C  0.61611657  0.02504750  0.51775877     0.78100
C1542       C  0.61610387  0.40938157  0.91604218     0.78100
O1543       O  0.93841939  0.08394585  0.51498537    -0.71000
O1544       O  0.49564223  0.08479122  0.91838904    -0.71300
O1545       O  0.51517774  0.08501087  0.49531078    -0.71100
O1546       O  0.91887454  0.08383721  0.93777517    -0.71100
O1547       O  0.92750643  0.14723375  0.92198481    -0.71100
O1548       O  0.50533182  0.14803365  0.51159067    -0.71100
O1549       O  0.51118912  0.14810966  0.92783190    -0.71100
O1550       O  0.92211226  0.14713453  0.50578114    -0.71200
V1551       V  0.96701679  0.08552145  0.96663442     1.35200
V1552       V  0.96651247  0.14789161  0.96675118     1.35200
C1553       C  0.91616871  0.11348547  0.52432897     0.78200
C1554       C  0.51779832  0.11454600  0.90934977     0.78200
C1555       C  0.52423078  0.11469393  0.51765597     0.78100
C1556       C  0.90922591  0.11348301  0.91567360     0.78100
O1557       O  0.78330077  0.01132128  0.92735506    -0.71000
O1558       O  0.78412417  0.42079573  0.50503545    -0.71300
O1559       O  0.78371428  0.00517246  0.51116214    -0.71100
O1560       O  0.78373415  0.42739464  0.92105387    -0.71100
O1561       O  0.84596116  0.41725888  0.93847487    -0.71100
O1562       O  0.84577563  0.01570069  0.49342601    -0.71100
O1563       O  0.84622109  0.43877416  0.51529860    -0.71100
O1564       O  0.84548349  0.99398964  0.91704490    -0.71200
V1565       V  0.78322450  0.46610959  0.96620012     1.35200
V1566       V  0.84488638  0.46640293  0.96611173     1.35200
C1567       C  0.81646097  0.01711265  0.90833009     0.78200
C1568       C  0.81743404  0.41537517  0.52416692     0.78200
C1569       C  0.81682696  0.02468776  0.51633992     0.78100
C1570       C  0.81710551  0.40880698  0.91499366     0.78100
O1571       O  0.91892345  0.34941924  0.93750252    -0.71000
O1572       O  0.51526760  0.34989830  0.49485701    -0.71300
O1573       O  0.49552261  0.34986036  0.91786582    -0.71100
O1574       O  0.93825936  0.34919409  0.51436939    -0.71100
O1575       O  0.92265441  0.28588746  0.50455652    -0.71100
O1576       O  0.51178610  0.28668640  0.92716110    -0.71100
O1577       O  0.50624325  0.28670098  0.51093786    -0.71100
O1578       O  0.92841155  0.28621637  0.92132413    -0.71200
V1579       V  0.96702603  0.34848594  0.96618225     1.35200
V1580       V  0.96733375  0.28610670  0.96603069     1.35200
C1581       C  0.90966074  0.31968526  0.91536387     0.79400
C1582       C  0.52492877  0.32029358  0.51698352     0.78200
C1583       C  0.51772702  0.32027809  0.90856625     0.78100
C1584       C  0.91586046  0.31943072  0.52286552     0.78100
C1585       C  0.69428925  0.08304301  0.53926285    -0.20600
C1586       C  0.67384052  0.07737216  0.57618609    -0.08600
C1587       C  0.69629746  0.07396514  0.61234365     0.30200
C1588       C  0.73854297  0.07425601  0.61121153    -0.20600
C1589       C  0.75897437  0.07824698  0.57413392    -0.08600
C1590       C  0.73657125  0.08363485  0.53826488     0.30200
F1591       F  0.75562187  0.09076922  0.50262313    -0.19200
H1592       H  0.67749609  0.08753878  0.51129238     0.18600
H1593       H  0.75538058  0.07074608  0.63930646     0.18600
F1594       F  0.67745804  0.06938861  0.64864883    -0.19100
C1595       C  0.88723345  0.23793106  0.59817133    -0.20600
C1596       C  0.86069529  0.25855117  0.57200654    -0.08600
C1597       C  0.83549228  0.23625104  0.54573709     0.30200
C1598       C  0.83537129  0.19369704  0.54726520    -0.20600
C1599       C  0.86080038  0.17316089  0.57453529    -0.08600
C1600       C  0.88718654  0.19534175  0.59964508     0.30200
F1601       F  0.91243628  0.17582915  0.62577214    -0.19200
H1602       H  0.90764693  0.25486481  0.61769217     0.18600
H1603       H  0.81534947  0.17669481  0.52734088     0.18600
F1604       F  0.81108778  0.25561000  0.51871323    -0.19100
C1605       C  0.58000316  0.19547394  0.53733937    -0.20600
C1606       C  0.57702513  0.17455036  0.57451429    -0.08600
C1607       C  0.57665420  0.19701957  0.61077810     0.30200
C1608       C  0.57702454  0.23927845  0.60986707    -0.20600
C1609       C  0.57798342  0.26038115  0.57302167    -0.08600
C1610       C  0.58080994  0.23817128  0.53651043     0.30200
F1611       F  0.58612280  0.25748218  0.50043523    -0.19200
H1612       H  0.58265844  0.17877738  0.50906970     0.18600
H1613       H  0.57664209  0.25545589  0.63834960     0.18600
F1614       F  0.57574392  0.17844500  0.64742432    -0.19100
C1615       C  0.73933120  0.39432367  0.58220616    -0.20600
C1616       C  0.75973459  0.35717319  0.57696499    -0.08600
C1617       C  0.73718348  0.32092416  0.57406267     0.30200
C1618       C  0.69499766  0.32216781  0.57429989    -0.20600
C1619       C  0.67463298  0.35939381  0.57807177    -0.08600
C1620       C  0.69705398  0.39547865  0.58306169     0.30200
F1621       F  0.67818735  0.43151661  0.59006223    -0.19200
H1622       H  0.75618649  0.42236756  0.58634765     0.18600
H1623       H  0.67813847  0.29398198  0.57109840     0.18600
F1624       F  0.75575246  0.28430825  0.57037030    -0.19100
C1625       C  0.56017954  0.32532590  0.69550683    -0.20600
C1626       C  0.57378881  0.35930020  0.67369485    -0.08600
C1627       C  0.58683628  0.39413772  0.69486299     0.30200
C1628       C  0.58711694  0.39439972  0.73740774    -0.20600
C1629       C  0.57484201  0.35972289  0.75909444    -0.08600
C1630       C  0.56113296  0.32525333  0.73791715     0.30200
F1631       F  0.54792530  0.29185221  0.75828635    -0.19200
H1632       H  0.54815596  0.29908370  0.67979393     0.18600
H1633       H  0.59763506  0.42126938  0.75345028     0.18600
F1634       F  0.60000353  0.42743600  0.67433744    -0.19100
C1635       C  0.59174430  0.04312804  0.73781986    -0.20600
C1636       C  0.57340930  0.07523141  0.75904186    -0.08600
C1637       C  0.55325985  0.10601215  0.73753096     0.30200
C1638       C  0.55204504  0.10494745  0.69508693    -0.20600
C1639       C  0.57237458  0.07423230  0.67376014    -0.08600
C1640       C  0.59156800  0.04278912  0.69531072     0.30200
F1641       F  0.61049559  0.01220008  0.67517567    -0.19200
H1642       H  0.60676543  0.01880099  0.75421161     0.18600
H1643       H  0.53506363  0.12795370  0.67890220     0.18600
F1644       F  0.53451738  0.13677418  0.75760862    -0.19100
C1645       C  0.60667752  0.23874366  0.87303257    -0.20600
C1646       C  0.57313909  0.26009847  0.85801107    -0.08600
C1647       C  0.53906963  0.23828289  0.84437773     0.30200
C1648       C  0.53937676  0.19556406  0.84468622    -0.20600
C1649       C  0.57378986  0.17440835  0.85820096    -0.08600
C1650       C  0.60736943  0.19622566  0.87256546     0.30200
F1651       F  0.64051839  0.17635332  0.88681957    -0.19200
H1652       H  0.63203687  0.25493267  0.88589160     0.18600
H1653       H  0.51315153  0.17897248  0.83373774     0.18600
F1654       F  0.50594252  0.25824557  0.83024417    -0.19100
C1655       C  0.85238947  0.03816511  0.73820398    -0.20600
C1656       C  0.85613688  0.07541495  0.75895703    -0.08600
C1657       C  0.85762456  0.11176975  0.73646895     0.30200
C1658       C  0.85758983  0.11066647  0.69414501    -0.20600
C1659       C  0.85536739  0.07346907  0.67335708    -0.08600
C1660       C  0.85171398  0.03710738  0.69569583     0.30200
F1661       F  0.84596476  0.00088795  0.67660310    -0.19200
H1662       H  0.84910564  0.00997656  0.75496210     0.18600
H1663       H  0.85958534  0.13909064  0.67754602     0.18600
F1664       F  0.85954878  0.14849143  0.75519714    -0.19100
C1665       C  0.69504883  0.08674458  0.89168934    -0.20600
C1666       C  0.67356162  0.07590262  0.85646158    -0.08600
C1667       C  0.69496007  0.06599456  0.82095894     0.30200
C1668       C  0.73733110  0.06596637  0.82112252    -0.20600
C1669       C  0.75870241  0.07598833  0.85660958    -0.08600
C1670       C  0.73736470  0.08719626  0.89160757     0.30200
F1671       F  0.75766740  0.10004613  0.92506096    -0.19200
H1672       H  0.67899305  0.09563990  0.91894739     0.18600
H1673       H  0.75350825  0.05792380  0.79367354     0.18600
F1674       F  0.67490401  0.05577736  0.78638484    -0.19100
C1675       C  0.86317527  0.31931342  0.73810906    -0.20600
C1676       C  0.85890500  0.35626044  0.75906730    -0.08600
C1677       C  0.85277359  0.39236011  0.73696065     0.30200
C1678       C  0.85315903  0.39167308  0.69452724    -0.20600
C1679       C  0.85898869  0.35498232  0.67348722    -0.08600
C1680       C  0.86293527  0.31854460  0.69562751     0.30200
F1681       F  0.86669995  0.28224267  0.67637226    -0.19200
H1682       H  0.86668048  0.29101475  0.75468839     0.18600
H1683       H  0.84777166  0.41966378  0.67797834     0.18600
F1684       F  0.84460917  0.42790720  0.75634729    -0.19100
C1685       C  0.73809842  0.39417029  0.85117891    -0.20600
C1686       C  0.75936377  0.35741337  0.85591186    -0.08600
C1687       C  0.73765141  0.32078330  0.85870431     0.30200
C1688       C  0.69550574  0.32117257  0.85889422    -0.20600
C1689       C  0.67414151  0.35792576  0.85666385    -0.08600
C1690       C  0.69574988  0.39449703  0.85134453     0.30200
F1691       F  0.67602116  0.43012913  0.84448766    -0.19200
H1692       H  0.75431566  0.42250223  0.84657079     0.18600
H1693       H  0.67971043  0.29257536  0.86073046     0.18600
F1694       F  0.75702739  0.28451782  0.86162482    -0.19100
C1695       C  0.83499337  0.19508359  0.88819805    -0.20600
C1696       C  0.85926349  0.17375235  0.86054497    -0.08600
C1697       C  0.88521304  0.19537027  0.83462035     0.30200
C1698       C  0.88457132  0.23795405  0.83419596    -0.20600
C1699       C  0.85912703  0.25930860  0.86063367    -0.08600
C1700       C  0.83539683  0.23776205  0.88874700     0.30200
F1701       F  0.81256028  0.25796913  0.91641414    -0.19200
H1702       H  0.81569850  0.17865010  0.90913880     0.18600
H1703       H  0.90400643  0.25433279  0.81335150     0.18600
F1704       F  0.91130666  0.17528922  0.80997603    -0.19100
C1705       C  0.87293413  0.87420822  0.37344024     0.46200
H1706       H  0.89165314  0.89469059  0.39229147    -0.02800
C1707       C  0.82934361  0.82775614  0.32850298     0.46200
H1708       H  0.81056763  0.80758955  0.30892167    -0.02800
C1709       C  0.82772918  0.88107704  0.38049421    -0.16500
C1710       C  0.88169053  0.88052892  0.32822137    -0.16300
C1711       C  0.88032860  0.82917144  0.38238530    -0.16700
C1712       C  0.80410045  0.85704074  0.35591574    -0.16600
C1713       C  0.85793309  0.85631346  0.30395437    -0.16200
C1714       C  0.85751246  0.80410720  0.35842153    -0.16500
C1715       C  0.87204729  0.55874928  0.37345311     0.46200
H1716       H  0.89130406  0.53938240  0.39278255    -0.02800
C1717       C  0.82853112  0.60546329  0.32889802     0.46200
H1718       H  0.80934419  0.62576038  0.30993423    -0.02800
C1719       C  0.82691053  0.55112747  0.37993669    -0.16500
C1720       C  0.87981354  0.60382228  0.38244673    -0.16300
C1721       C  0.87961836  0.55146218  0.32811985    -0.16700
C1722       C  0.80334413  0.57637561  0.35658572    -0.16600
C1723       C  0.85722368  0.62892385  0.35845524    -0.16200
C1724       C  0.85661303  0.57656996  0.30395136    -0.16500
C1725       C  0.55980363  0.55974313  0.37311808     0.46200
H1726       H  0.54132941  0.54006565  0.39287738    -0.02800
C1727       C  0.60385631  0.60538119  0.32806834     0.46200
H1728       H  0.62282098  0.62523149  0.30846203    -0.02800
C1729       C  0.60510257  0.55215184  0.37998769    -0.16500
C1730       C  0.55133231  0.55279469  0.32805550    -0.16300
C1731       C  0.55134492  0.60490380  0.38047788    -0.16700
C1732       C  0.62884223  0.57677241  0.35637565    -0.16600
C1733       C  0.57524355  0.57633816  0.30370437    -0.16200
C1734       C  0.57515114  0.62954666  0.35701284    -0.16500
C1735       C  0.56056210  0.87509473  0.37330441     0.46200
H1736       H  0.54176380  0.89468670  0.39277966    -0.02800
C1737       C  0.60410827  0.82913332  0.32823506     0.46200
H1738       H  0.62285860  0.80921916  0.30852399    -0.02800
C1739       C  0.60571950  0.88070928  0.38207193    -0.16500
C1740       C  0.55080193  0.82997151  0.37943513    -0.16300
C1741       C  0.55415652  0.88407361  0.32818430    -0.16700
C1742       C  0.62937481  0.85716501  0.35716441    -0.16600
C1743       C  0.57454949  0.80509494  0.35633570    -0.16200
C1744       C  0.57666120  0.85914482  0.30383566    -0.16500
C1745       C  0.56134620  0.87531537  0.05918621     0.46200
H1746       H  0.54209652  0.89440435  0.03960111    -0.02800
C1747       C  0.60473885  0.82978266  0.10489583     0.46200
H1748       H  0.62376991  0.81036106  0.12491198    -0.02800
C1749       C  0.60639836  0.88400903  0.05388998    -0.16500
C1750       C  0.55261689  0.88237360  0.10419940    -0.16300
C1751       C  0.55480858  0.83003393  0.04993322    -0.16700
C1752       C  0.62999101  0.85945989  0.07792821    -0.16600
C1753       C  0.57512045  0.85778155  0.12887910    -0.16200
C1754       C  0.57796507  0.80542546  0.07423429    -0.16500
C1755       C  0.87331222  0.87360898  0.05936968     0.46200
H1756       H  0.89165123  0.89354283  0.03974509    -0.02800
C1757       C  0.82970823  0.82646810  0.10323830     0.46200
H1758       H  0.81089178  0.80605348  0.12237692    -0.02800
C1759       C  0.88175525  0.82866621  0.05088214    -0.16500
C1760       C  0.88194788  0.87950234  0.10458705    -0.16300
C1761       C  0.82808629  0.88153622  0.05305203    -0.16700
C1762       C  0.85811204  0.80331086  0.07349546    -0.16600
C1763       C  0.85833117  0.85480074  0.12852000    -0.16200
C1764       C  0.80448163  0.85605574  0.07605743    -0.16500
C1765       C  0.56026226  0.55977441  0.05912067     0.46200
H1766       H  0.54149350  0.53958631  0.04001836    -0.02800
C1767       C  0.60390707  0.60448149  0.10565976     0.46200
H1768       H  0.62306360  0.62367178  0.12580186    -0.02800
C1769       C  0.60548172  0.55293892  0.05205270    -0.16500
C1770       C  0.55340270  0.60506272  0.05098486    -0.16300
C1771       C  0.55101553  0.55257085  0.10403099    -0.16700
C1772       C  0.62912033  0.57627265  0.07726758    -0.16600
C1773       C  0.57641690  0.62945889  0.07595711    -0.16200
C1774       C  0.57460672  0.57570847  0.12905015    -0.16500
C1775       C  0.87245411  0.55874755  0.05891380     0.46200
H1776       H  0.89130294  0.53917079  0.03945559    -0.02800
C1777       C  0.82890255  0.60483508  0.10379767     0.46200
H1778       H  0.80999073  0.62512723  0.12295827    -0.02800
C1779       C  0.82727036  0.55409757  0.04944829    -0.16500
C1780       C  0.87808286  0.54919420  0.10410951    -0.16300
C1781       C  0.88291705  0.60368944  0.05330897    -0.16700
C1782       C  0.80368857  0.57811880  0.07392739    -0.16600
C1783       C  0.85510277  0.57395033  0.12842866    -0.16200
C1784       C  0.85931315  0.62848327  0.07653232    -0.16500
O1785       O  0.49437818  0.51503726  0.08428956    -0.71000
O1786       O  0.93794008  0.91734835  0.08503417    -0.71300
O1787       O  0.91747175  0.49418432  0.08452478    -0.71100
O1788       O  0.51427670  0.93805182  0.08464528    -0.71100
O1789       O  0.50511621  0.92162116  0.14756937    -0.71100
O1790       O  0.92719980  0.51111118  0.14729554    -0.71100
O1791       O  0.92185116  0.92720132  0.14785567    -0.71100
O1792       O  0.51088069  0.50555287  0.14724718    -0.71200
V1793       V  0.96600265  0.96620041  0.08569296     1.35200
V1794       V  0.96628553  0.96643931  0.14781487     1.35200
C1795       C  0.51708675  0.52402338  0.11368961     0.78200
C1796       C  0.91560493  0.90831631  0.11452404     0.78200
C1797       C  0.90801069  0.51651231  0.11396369     0.78100
C1798       C  0.52350277  0.91555400  0.11405316     0.78100
O1799       O  0.51113161  0.50599896  0.28450287    -0.71000
O1800       O  0.92193437  0.92778691  0.28475128    -0.71300
O1801       O  0.92760268  0.51207954  0.28463085    -0.71100
O1802       O  0.50552603  0.92232992  0.28473703    -0.71100
O1803       O  0.51495484  0.93911214  0.34761239    -0.71100
O1804       O  0.91812568  0.49543614  0.34738566    -0.71100
O1805       O  0.93826801  0.91830761  0.34764332    -0.71100
O1806       O  0.49475905  0.51587904  0.34732452    -0.71200
V1807       V  0.96646549  0.96703255  0.28430818     1.35200
V1808       V  0.96651990  0.96716857  0.34640843     1.35200
C1809       C  0.51741545  0.52457718  0.31800213     0.78200
C1810       C  0.91565269  0.90918643  0.31824232     0.78200
C1811       C  0.90890962  0.51808532  0.31804885     0.78100
C1812       C  0.52446317  0.91680539  0.31817977     0.78100
O1813       O  0.58692498  0.49511716  0.41758697    -0.71000
O1814       O  0.58751832  0.94004839  0.01563603    -0.71300
O1815       O  0.58729227  0.51661095  0.99424676    -0.71100
O1816       O  0.58711110  0.91822742  0.43901046    -0.71100
O1817       O  0.64932141  0.92850956  0.42187169    -0.71100
O1818       O  0.64945453  0.50630885  0.01193231    -0.71100
O1819       O  0.64972365  0.92259201  0.00553727    -0.71100
O1820       O  0.64913346  0.51280128  0.42773716    -0.71200
V1821       V  0.58819648  0.96748280  0.46661284     1.35200
V1822       V  0.64988486  0.96761497  0.46669016     1.35200
C1823       C  0.61578009  0.51837987  0.40874163     0.78200
C1824       C  0.61661170  0.91719286  0.02469122     0.78200
C1825       C  0.61611746  0.52504615  0.01775886     0.78100
C1826       C  0.61610450  0.90938242  0.41604195     0.78100
O1827       O  0.93842063  0.58394757  0.01498527    -0.71000
O1828       O  0.49564434  0.58478915  0.41839079    -0.71300
O1829       O  0.51517715  0.58500868  0.99531342    -0.71100
O1830       O  0.91887388  0.58383942  0.43777573    -0.71100
O1831       O  0.92750723  0.64723539  0.42198388    -0.71100
O1832       O  0.50533312  0.64803215  0.01159176    -0.71100
O1833       O  0.51118972  0.64810807  0.42783270    -0.71100
O1834       O  0.92211159  0.64713562  0.00577995    -0.71200
V1835       V  0.96701702  0.58552324  0.46663377     1.35200
V1836       V  0.96651282  0.64789319  0.46675067     1.35200
C1837       C  0.91616914  0.61348668  0.02432838     0.78200
C1838       C  0.51779985  0.61454431  0.40935115     0.78200
C1839       C  0.52423135  0.61469213  0.01765757     0.78100
C1840       C  0.90922613  0.61348485  0.41567322     0.78100
O1841       O  0.78330284  0.51132202  0.42735273    -0.71000
O1842       O  0.78412327  0.92079486  0.00503770    -0.71300
O1843       O  0.78371568  0.50517275  0.01115988    -0.71100
O1844       O  0.78373392  0.92739422  0.42105601    -0.71100
O1845       O  0.84596095  0.91725898  0.43847733    -0.71100
O1846       O  0.84577732  0.51570023  0.99342420    -0.71100
O1847       O  0.84621972  0.93877476  0.01530121    -0.71100
O1848       O  0.84548568  0.49399057  0.41704297    -0.71200
V1849       V  0.78322360  0.96610920  0.46620229     1.35200
V1850       V  0.84488542  0.96640319  0.46611400     1.35200
C1851       C  0.81646312  0.51711349  0.40832797     0.78200
C1852       C  0.81743316  0.91537511  0.02416937     0.78200
C1853       C  0.81682852  0.52468767  0.01633786     0.78100
C1854       C  0.81710554  0.90880694  0.41499586     0.78100
O1855       O  0.91892340  0.84942016  0.43750475    -0.71000
O1856       O  0.51526880  0.84989704  0.99485500    -0.71300
O1857       O  0.49552389  0.84985948  0.41786328    -0.71100
O1858       O  0.93825942  0.84919479  0.01437089    -0.71100
O1859       O  0.92265478  0.78588805  0.00455821    -0.71100
O1860       O  0.51178735  0.78668548  0.42715831    -0.71100
O1861       O  0.50624422  0.78669963  0.01093521    -0.71100
O1862       O  0.92841171  0.78621739  0.42132598    -0.71200
V1863       V  0.96702612  0.84848675  0.46618412     1.35200
V1864       V  0.96733382  0.78610752  0.46603237     1.35200
C1865       C  0.90966098  0.81968630  0.41536585     0.79400
C1866       C  0.52492977  0.82029215  0.01698139     0.78200
C1867       C  0.51772841  0.82027729  0.40856380     0.78100
C1868       C  0.91586061  0.81943133  0.02286707     0.78100
C1869       C  0.69428997  0.58304010  0.03926185    -0.20600
C1870       C  0.67384194  0.57736981  0.07618551    -0.08600
C1871       C  0.69629939  0.57396319  0.11234275     0.30200
C1872       C  0.73854477  0.57425469  0.11120999    -0.20600
C1873       C  0.75897548  0.57824560  0.07413203    -0.08600
C1874       C  0.73657183  0.58363211  0.03826311     0.30200
F1875       F  0.75562169  0.59076524  0.00262071    -0.19200
H1876       H  0.67749627  0.58753539  0.01129151     0.18600
H1877       H  0.75538285  0.57074535  0.13930474     0.18600
F1878       F  0.67746054  0.56938667  0.14864822    -0.19100
C1879       C  0.88723459  0.73793095  0.09817076    -0.20600
C1880       C  0.86069521  0.75855153  0.07200764    -0.08600
C1881       C  0.83549110  0.73625180  0.04573884     0.30200
C1882       C  0.83537019  0.69369776  0.04726620    -0.20600
C1883       C  0.86080043  0.67316114  0.07453482    -0.08600
C1884       C  0.88718776  0.69534161  0.09964369     0.30200
F1885       F  0.91243877  0.67582849  0.12576907    -0.19200
H1886       H  0.90764902  0.75486435  0.11769093     0.18600
H1887       H  0.81534753  0.67669581  0.02734234     0.18600
F1888       F  0.81108567  0.75561118  0.01871616    -0.19100
C1889       C  0.58000493  0.69547218  0.03733863    -0.20600
C1890       C  0.57702823  0.67454888  0.07451390    -0.08600
C1891       C  0.57665943  0.69701849  0.11077747     0.30200
C1892       C  0.57702911  0.73927731  0.10986593    -0.20600
C1893       C  0.57798560  0.76037983  0.07302033    -0.08600
C1894       C  0.58081143  0.73816963  0.03650923     0.30200
F1895       F  0.58612339  0.75748022  0.00043371    -0.19200
H1896       H  0.58265925  0.67877539  0.00906906     0.18600
H1897       H  0.57664816  0.75545470  0.13834828     0.18600
F1898       F  0.57575212  0.67844461  0.14742412    -0.19100
C1899       C  0.73933111  0.89432381  0.08220740    -0.20600
C1900       C  0.75973480  0.85717322  0.07696800    -0.08600
C1901       C  0.73718387  0.82092402  0.07406647     0.30200
C1902       C  0.69499805  0.82216770  0.07430177    -0.20600
C1903       C  0.67463311  0.85939380  0.07807159    -0.08600
C1904       C  0.69705389  0.89547879  0.08306152     0.30200
F1905       F  0.67818703  0.93151688  0.09006068    -0.19200
H1906       H  0.75618623  0.92236797  0.08634849     0.18600
H1907       H  0.67813901  0.79398172  0.07110059     0.18600
F1908       F  0.75575304  0.78430793  0.07037659    -0.19100
C1909       C  0.56018599  0.82532398  0.19550631    -0.20600
C1910       C  0.57378994  0.85929999  0.17369376    -0.08600
C1911       C  0.58683330  0.89413940  0.19486152     0.30200
C1912       C  0.58711495  0.89440154  0.23740634    -0.20600
C1913       C  0.57484535  0.85972299  0.25909347    -0.08600
C1914       C  0.56114078  0.82525149  0.23791651     0.30200
F1915       F  0.54793834  0.79184847  0.25828596    -0.19200
H1916       H  0.54816509  0.79908026  0.17979392     0.18600
H1917       H  0.59762957  0.92127271  0.25344856     0.18600
F1918       F  0.59999544  0.92743954  0.17433561    -0.19100
C1919       C  0.59174240  0.54312592  0.23782084    -0.20600
C1920       C  0.57341003  0.57523108  0.25904242    -0.08600
C1921       C  0.55326451  0.60601414  0.23753113     0.30200
C1922       C  0.55204990  0.60494916  0.19508716    -0.20600
C1923       C  0.57237662  0.57423187  0.17376077    -0.08600
C1924       C  0.59156694  0.54278701  0.19531173     0.30200
F1925       F  0.61049232  0.51219633  0.17517709    -0.19200
H1926       H  0.60676120  0.51879754  0.25421295     0.18600
H1927       H  0.53507057  0.62795677  0.17890219     0.18600
F1928       F  0.53452586  0.63677886  0.25760829    -0.19100
C1929       C  0.60667855  0.73874316  0.37303464    -0.20600
C1930       C  0.57314147  0.76009794  0.35800976    -0.08600
C1931       C  0.53907312  0.73828215  0.34437386     0.30200
C1932       C  0.53937987  0.69556328  0.34468346    -0.20600
C1933       C  0.57379151  0.67440755  0.35820192    -0.08600
C1934       C  0.60737008  0.69622499  0.37256876     0.30200
F1935       F  0.64051773  0.67635268  0.38682612    -0.19200
H1936       H  0.63203699  0.75493226  0.38589516     0.18600
H1937       H  0.51315550  0.67897167  0.33373296     0.18600
F1938       F  0.50594735  0.75824463  0.33023684    -0.19100
C1939       C  0.85239012  0.53816599  0.23820272    -0.20600
C1940       C  0.85613967  0.57541589  0.25895534    -0.08600
C1941       C  0.85762918  0.61177039  0.23646694     0.30200
C1942       C  0.85759315  0.61066671  0.19414296    -0.20600
C1943       C  0.85536811  0.57346920  0.17335545    -0.08600
C1944       C  0.85171369  0.53710787  0.19569458     0.30200
F1945       F  0.84596272  0.50088851  0.17660220    -0.19200
H1946       H  0.84910530  0.50997779  0.25496120     0.18600
H1947       H  0.85958977  0.63909049  0.17754361     0.18600
F1948       F  0.85955661  0.64849207  0.25519488    -0.19100
C1949       C  0.69505079  0.58674054  0.39168805    -0.20600
C1950       C  0.67356320  0.57590123  0.35645977    -0.08600
C1951       C  0.69496147  0.56599669  0.32095590     0.30200
C1952       C  0.73733265  0.56596930  0.32111893    -0.20600
C1953       C  0.75870422  0.57598859  0.35660667    -0.08600
C1954       C  0.73736659  0.58719307  0.39160574     0.30200
F1955       F  0.75766934  0.60004029  0.42506004    -0.19200
H1956       H  0.67899534  0.59563332  0.41894707     0.18600
H1957       H  0.75350959  0.55792936  0.29366919     0.18600
F1958       F  0.67490521  0.55578211  0.28638111    -0.19100
C1959       C  0.86317861  0.81931440  0.23811086    -0.20600
C1960       C  0.85890602  0.85626115  0.25906905    -0.08600
C1961       C  0.85277305  0.89236053  0.23696238     0.30200
C1962       C  0.85315904  0.89167359  0.19452895    -0.20600
C1963       C  0.85899051  0.85498308  0.17348902    -0.08600
C1964       C  0.86293907  0.81854561  0.19562932     0.30200
F1965       F  0.86670633  0.78224402  0.17637398    -0.19200
H1966       H  0.86668531  0.79101591  0.25469026     0.18600
H1967       H  0.84777053  0.91966400  0.17798000     0.18600
F1968       F  0.84460657  0.92790712  0.25634906    -0.19100
C1969       C  0.73809976  0.89417009  0.35118036    -0.20600
C1970       C  0.75936496  0.85741320  0.35591359    -0.08600
C1971       C  0.73765277  0.82078305  0.35870616     0.30200
C1972       C  0.69550711  0.82117234  0.35889624    -0.20600
C1973       C  0.67414309  0.85792564  0.35666530    -0.08600
C1974       C  0.69575137  0.89449683  0.35134572     0.30200
F1975       F  0.67602269  0.93012881  0.34448819    -0.19200
H1976       H  0.75431707  0.92250206  0.34657212     0.18600
H1977       H  0.67971166  0.79257532  0.36073287     0.18600
F1978       F  0.75702882  0.78451756  0.36162658    -0.19100
C1979       C  0.83499380  0.69508424  0.38819723    -0.20600
C1980       C  0.85926441  0.67375351  0.36054417    -0.08600
C1981       C  0.88521520  0.69537178  0.33462116     0.30200
C1982       C  0.88457368  0.73795556  0.33419762    -0.20600
C1983       C  0.85912865  0.75930961  0.36063500    -0.08600
C1984       C  0.83539776  0.73776267  0.38874735     0.30200
F1985       F  0.81256117  0.75796934  0.41641476    -0.19200
H1986       H  0.81569839  0.67865042  0.40913720     0.18600
H1987       H  0.90400947  0.75433467  0.31335417     0.18600
F1988       F  0.91130999  0.67529107  0.30997779    -0.19100
C1989       C  0.87293491  0.87420684  0.87344008     0.46200
H1990       H  0.89165424  0.89468892  0.89229121    -0.02800
C1991       C  0.82934377  0.82775521  0.82850298     0.46200
H1992       H  0.81056752  0.80758882  0.80892178    -0.02800
C1993       C  0.82773002  0.88107669  0.88049374    -0.16500
C1994       C  0.88169169  0.88052699  0.82822114    -0.16300
C1995       C  0.88032834  0.82916996  0.88238573    -0.16700
C1996       C  0.80410097  0.85704048  0.85591545    -0.16600
C1997       C  0.85793392  0.85631173  0.80395418    -0.16200
C1998       C  0.85751190  0.80410601  0.85842197    -0.16500
C1999       C  0.87204578  0.55874837  0.87345359     0.46200
H2000       H  0.89130217  0.53938140  0.89278338    -0.02800
C2001       C  0.82852996  0.60546232  0.82889811     0.46200
H2002       H  0.80934304  0.62575938  0.80993420    -0.02800
C2003       C  0.82690902  0.55112606  0.87993616    -0.16500
C2004       C  0.87981160  0.60382127  0.88244767    -0.16300
C2005       C  0.87961790  0.55146204  0.82812041    -0.16700
C2006       C  0.80334293  0.57637397  0.85658493    -0.16600
C2007       C  0.85722171  0.62892284  0.85845616    -0.16200
C2008       C  0.85661274  0.57656971  0.80395167    -0.16500
C2009       C  0.55980351  0.55974211  0.87311806     0.46200
H2010       H  0.54132922  0.54006480  0.89287753    -0.02800
C2011       C  0.60385658  0.60537941  0.82806787     0.46200
H2012       H  0.62282153  0.62522929  0.80846140    -0.02800
C2013       C  0.60510234  0.55215046  0.87998750    -0.16500
C2014       C  0.55133193  0.55279369  0.82805555    -0.16300
C2015       C  0.55134536  0.60490293  0.88047763    -0.16700
C2016       C  0.62884204  0.57677037  0.85637504    -0.16600
C2017       C  0.57524352  0.57633657  0.80370416    -0.16200
C2018       C  0.57515192  0.62954542  0.85701249    -0.16500
C2019       C  0.56056216  0.87509366  0.87330284     0.46200
H2020       H  0.54176351  0.89468553  0.89277783    -0.02800
C2021       C  0.60410904  0.82913257  0.82823394     0.46200
H2022       H  0.62285964  0.80921860  0.80852295    -0.02800
C2023       C  0.60571940  0.88070880  0.88207062    -0.16500
C2024       C  0.55080248  0.82997034  0.87943383    -0.16300
C2025       C  0.55415677  0.88407257  0.82818276    -0.16700
C2026       C  0.62937515  0.85716465  0.85716335    -0.16600
C2027       C  0.57455046  0.80509391  0.85633456    -0.16200
C2028       C  0.57666172  0.85914372  0.80383437    -0.16500
C2029       C  0.56134709  0.87531560  0.55918567     0.46200
H2030       H  0.54209794  0.89440493  0.53960036    -0.02800
C2031       C  0.60473912  0.82978218  0.60489515     0.46200
H2032       H  0.62376994  0.81036036  0.62491128    -0.02800
C2033       C  0.60639935  0.88400907  0.55389001    -0.16500
C2034       C  0.55261738  0.88237344  0.60419880    -0.16300
C2035       C  0.55480894  0.83003425  0.54993255    -0.16700
C2036       C  0.62999163  0.85945946  0.57792805    -0.16600
C2037       C  0.57512070  0.85778101  0.62887833    -0.16200
C2038       C  0.57796526  0.80542543  0.57423341    -0.16500
C2039       C  0.87331240  0.87360979  0.55936926     0.46200
H2040       H  0.89165124  0.89354400  0.53974481    -0.02800
C2041       C  0.82970885  0.82646795  0.60323738     0.46200
H2042       H  0.81089258  0.80605299  0.62237572    -0.02800
C2043       C  0.88175561  0.82866712  0.55088111    -0.16500
C2044       C  0.88194817  0.87950257  0.60458673    -0.16300
C2045       C  0.82808634  0.88153679  0.55305196    -0.16700
C2046       C  0.85811257  0.80331131  0.57349409    -0.16600
C2047       C  0.85833170  0.85480038  0.62851942    -0.16200
C2048       C  0.80448200  0.85605575  0.57605705    -0.16500
C2049       C  0.56026256  0.55977444  0.55912045     0.46200
H2050       H  0.54149355  0.53958631  0.54001837    -0.02800
C2051       C  0.60390806  0.60448129  0.60565912     0.46200
H2052       H  0.62306483  0.62367153  0.62580105    -0.02800
C2053       C  0.60548198  0.55293896  0.55205186    -0.16500
C2054       C  0.55340273  0.60506275  0.55098489    -0.16300
C2055       C  0.55101643  0.55257078  0.60403091    -0.16700
C2056       C  0.62912100  0.57627249  0.57726657    -0.16600
C2057       C  0.57641740  0.62945883  0.57595687    -0.16200
C2058       C  0.57460808  0.57570810  0.62904983    -0.16500
C2059       C  0.87245546  0.55874812  0.55891412     0.46200
H2060       H  0.89130451  0.53917157  0.53945602    -0.02800
C2061       C  0.82890347  0.60483518  0.60379806     0.46200
H2062       H  0.80999146  0.62512705  0.62295862    -0.02800
C2063       C  0.82727171  0.55409762  0.54944874    -0.16500
C2064       C  0.87808429  0.54919475  0.60410978    -0.16300
C2065       C  0.88291793  0.60369010  0.55330920    -0.16700
C2066       C  0.80368967  0.57811857  0.57392790    -0.16600
C2067       C  0.85510409  0.57395062  0.62842899    -0.16200
C2068       C  0.85931383  0.62848369  0.57653257    -0.16500
O2069       O  0.49437822  0.51503832  0.58429031    -0.71000
O2070       O  0.93794058  0.91734865  0.58503434    -0.71300
O2071       O  0.91747204  0.49418411  0.58452500    -0.71100
O2072       O  0.51427646  0.93805098  0.58464455    -0.71100
O2073       O  0.50511640  0.92162075  0.64756879    -0.71100
O2074       O  0.92720077  0.51111098  0.64729564    -0.71100
O2075       O  0.92185114  0.92720154  0.64785572    -0.71100
O2076       O  0.51088146  0.50555323  0.64724761    -0.71200
V2077       V  0.96600300  0.96620085  0.58569361     1.35200
V2078       V  0.96628539  0.96643964  0.64781547     1.35200
C2079       C  0.51708734  0.52402387  0.61369004     0.78200
C2080       C  0.91560519  0.90831654  0.61452401     0.78200
C2081       C  0.90801160  0.51651238  0.61396387     0.78100
C2082       C  0.52350292  0.91555353  0.61405257     0.78100
O2083       O  0.51113031  0.50599897  0.78450332    -0.71000
O2084       O  0.92193512  0.92778550  0.78475108    -0.71300
O2085       O  0.92760273  0.51208007  0.78463165    -0.71100
O2086       O  0.50552690  0.92233011  0.78473555    -0.71100
O2087       O  0.51495596  0.93911193  0.84761094    -0.71100
O2088       O  0.91812596  0.49543697  0.84738658    -0.71100
O2089       O  0.93826901  0.91830617  0.84764301    -0.71100
O2090       O  0.49475761  0.51587972  0.84732486    -0.71200
V2091       V  0.96646575  0.96703177  0.78430802     1.35200
V2092       V  0.96651997  0.96716784  0.84640821     1.35200
C2093       C  0.51741434  0.52457719  0.81800246     0.78200
C2094       C  0.91565376  0.90918473  0.81824204     0.78200
C2095       C  0.90890975  0.51808586  0.81804966     0.78100
C2096       C  0.52446397  0.91680507  0.81817822     0.78100
O2097       O  0.58692500  0.49511646  0.91758766    -0.71000
O2098       O  0.58752020  0.94004996  0.51563791    -0.71300
O2099       O  0.58729185  0.51661045  0.49424642    -0.71100
O2100       O  0.58710973  0.91822799  0.93900807    -0.71100
O2101       O  0.64932064  0.92850915  0.92187102    -0.71100
O2102       O  0.64945439  0.50630879  0.51193134    -0.71100
O2103       O  0.64972496  0.92259230  0.50553784    -0.71100
O2104       O  0.64913329  0.51280145  0.92773794    -0.71200
V2105       V  0.58819517  0.96748257  0.96661178     1.35200
V2106       V  0.64988373  0.96761459  0.96668945     1.35200
C2107       C  0.61577998  0.51837924  0.90874206     0.78200
C2108       C  0.61661321  0.91719360  0.52469227     0.78200
C2109       C  0.61611729  0.52504590  0.51775815     0.78100
C2110       C  0.61610367  0.90938247  0.91604043     0.78100
O2111       O  0.93842142  0.58394846  0.51498529    -0.71000
O2112       O  0.49564442  0.58478901  0.91839026    -0.71300
O2113       O  0.51517611  0.58500865  0.49531412    -0.71100
O2114       O  0.91887312  0.58383826  0.93777580    -0.71100
O2115       O  0.92750596  0.64723431  0.92198394    -0.71100
O2116       O  0.50533242  0.64803221  0.51159220    -0.71100
O2117       O  0.51119041  0.64810778  0.92783224    -0.71100
O2118       O  0.92211231  0.64713648  0.50578003    -0.71200
V2119       V  0.96701632  0.58552239  0.96663375     1.35200
V2120       V  0.96651188  0.64789240  0.96675038     1.35200
C2121       C  0.91616989  0.61348752  0.52432846     0.78200
C2122       C  0.51780025  0.61454396  0.90935068     0.78200
C2123       C  0.52423064  0.61469216  0.51765805     0.78100
C2124       C  0.90922482  0.61348375  0.91567359     0.78100
O2125       O  0.78330100  0.51132157  0.92735269    -0.71000
O2126       O  0.78412277  0.92079513  0.50503793    -0.71300
O2127       O  0.78371719  0.50517294  0.51115986    -0.71100
O2128       O  0.78373502  0.92739422  0.92105571    -0.71100
O2129       O  0.84596224  0.91725926  0.93847645    -0.71100
O2130       O  0.84577928  0.51569960  0.49342542    -0.71100
O2131       O  0.84621890  0.93877599  0.51530174    -0.71100
O2132       O  0.84548343  0.49398899  0.91704214    -0.71200
V2133       V  0.78322453  0.96610905  0.96620222     1.35200
V2134       V  0.84488644  0.96640295  0.96611404     1.35200
C2135       C  0.81646111  0.51711228  0.90832735     0.78200
C2136       C  0.81743269  0.91537588  0.52416976     0.78200
C2137       C  0.81683018  0.52468743  0.51633848     0.78100
C2138       C  0.81710668  0.90880706  0.91499525     0.78100
O2139       O  0.91892222  0.84941846  0.93750590    -0.71000
O2140       O  0.51526722  0.84989790  0.49485602    -0.71300
O2141       O  0.49552474  0.84985854  0.91786228    -0.71100
O2142       O  0.93825980  0.84919606  0.51437003    -0.71100
O2143       O  0.92265485  0.78588944  0.50455680    -0.71100
O2144       O  0.51178790  0.78668457  0.92715760    -0.71100
O2145       O  0.50624381  0.78670011  0.51093553    -0.71100
O2146       O  0.92841095  0.78621576  0.92132715    -0.71200
V2147       V  0.96702528  0.84848551  0.96618475     1.35200
V2148       V  0.96733347  0.78610629  0.96603329     1.35200
C2149       C  0.90966008  0.81968460  0.91536689     0.79400
C2150       C  0.52492909  0.82029277  0.51698169     0.78200
C2151       C  0.51772906  0.82027619  0.90856277     0.78100
C2152       C  0.91586088  0.81943260  0.52286595     0.78100
C2153       C  0.69429124  0.58303957  0.53926147    -0.20600
C2154       C  0.67384275  0.57736887  0.57618482    -0.08600
C2155       C  0.69629990  0.57396171  0.61234223     0.30200
C2156       C  0.73854537  0.57425345  0.61121002    -0.20600
C2157       C  0.75897648  0.57824498  0.57413240    -0.08600
C2158       C  0.73657317  0.58363189  0.53826343     0.30200
F2159       F  0.75562363  0.59076647  0.50262178    -0.19200
H2160       H  0.67749796  0.58753530  0.51129106     0.18600
H2161       H  0.75538319  0.57074389  0.63930489     0.18600
F2162       F  0.67746063  0.56938456  0.64864739    -0.19100
C2163       C  0.88723522  0.73793168  0.59816967    -0.20600
C2164       C  0.86069606  0.75855198  0.57200610    -0.08600
C2165       C  0.83549160  0.73625198  0.54573790     0.30200
C2166       C  0.83537054  0.69369791  0.54726589    -0.20600
C2167       C  0.86080076  0.67316160  0.57453483    -0.08600
C2168       C  0.88718808  0.69534237  0.59964339     0.30200
F2169       F  0.91243868  0.67582965  0.62576947    -0.19200
H2170       H  0.90764936  0.75486524  0.61768976     0.18600
H2171       H  0.81534784  0.67669576  0.52734238     0.18600
F2172       F  0.81108583  0.75561112  0.51871533    -0.19100
C2173       C  0.58000505  0.69547200  0.53733825    -0.20600
C2174       C  0.57702866  0.67454883  0.57451361    -0.08600
C2175       C  0.57665976  0.69701865  0.61077709     0.30200
C2176       C  0.57702846  0.73927749  0.60986534    -0.20600
C2177       C  0.57798510  0.76037981  0.57301963    -0.08600
C2178       C  0.58081127  0.73816945  0.53650864     0.30200
F2179       F  0.58612347  0.75747994  0.50043311    -0.19200
H2180       H  0.58265946  0.67877501  0.50906868     0.18600
H2181       H  0.57664701  0.75545515  0.63834764     0.18600
F2182       F  0.57575349  0.67844498  0.64742383    -0.19100
C2183       C  0.73933152  0.89432345  0.58220745    -0.20600
C2184       C  0.75973523  0.85717293  0.57696800    -0.08600
C2185       C  0.73718440  0.82092361  0.57406689     0.30200
C2186       C  0.69499862  0.82216718  0.57430259    -0.20600
C2187       C  0.67463366  0.85939329  0.57807199    -0.08600
C2188       C  0.69705436  0.89547835  0.58306164     0.30200
F2189       F  0.67818750  0.93151650  0.59006045    -0.19200
H2190       H  0.75618657  0.92236766  0.58634837     0.18600
H2191       H  0.67813962  0.79398105  0.57110171     0.18600
F2192       F  0.75575360  0.78430756  0.57037693    -0.19100
C2193       C  0.56018347  0.82532423  0.69550509    -0.20600
C2194       C  0.57379028  0.85929922  0.67369278    -0.08600
C2195       C  0.58683758  0.89413708  0.69486047     0.30200
C2196       C  0.58711925  0.89439916  0.73740525    -0.20600
C2197       C  0.57484627  0.85972180  0.75909225    -0.08600
C2198       C  0.56113885  0.82525142  0.73791528     0.30200
F2199       F  0.54793472  0.79184903  0.75828462    -0.19200
H2200       H  0.54816060  0.79908155  0.67979260     0.18600
H2201       H  0.59763652  0.92126926  0.75344751     0.18600
F2202       F  0.60000364  0.92743564  0.67433449    -0.19100
C2203       C  0.59174054  0.54312314  0.73782050    -0.20600
C2204       C  0.57341012  0.57522946  0.75904216    -0.08600
C2205       C  0.55326722  0.60601418  0.73753088     0.30200
C2206       C  0.55205280  0.60494949  0.69508695    -0.20600
C2207       C  0.57237804  0.57423132  0.67376047    -0.08600
C2208       C  0.59156594  0.54278490  0.69531132     0.30200
F2209       F  0.61048976  0.51219331  0.67517656    -0.19200
H2210       H  0.60675726  0.51879354  0.75421253     0.18600
H2211       H  0.53507446  0.62795785  0.67890213     0.18600
F2212       F  0.53453051  0.63678010  0.75760804    -0.19100
C2213       C  0.60667910  0.73874216  0.87303542    -0.20600
C2214       C  0.57314277  0.76009687  0.85800858    -0.08600
C2215       C  0.53907521  0.73828098  0.84437090     0.30200
C2216       C  0.53938191  0.69556214  0.84468074    -0.20600
C2217       C  0.57379264  0.67440638  0.85820137    -0.08600
C2218       C  0.60737041  0.69622387  0.87257019     0.30200
F2219       F  0.64051697  0.67635153  0.88683008    -0.19200
H2220       H  0.63203700  0.75493143  0.88589684     0.18600
H2221       H  0.51315804  0.67897048  0.83372886     0.18600
F2222       F  0.50595018  0.75824341  0.83023206    -0.19100
C2223       C  0.85239233  0.53816580  0.73820293    -0.20600
C2224       C  0.85614014  0.57541580  0.75895564    -0.08600
C2225       C  0.85762861  0.61177037  0.73646729     0.30200
C2226       C  0.85759298  0.61066675  0.69414335    -0.20600
C2227       C  0.85536942  0.57346924  0.67335575    -0.08600
C2228       C  0.85171650  0.53710768  0.69569482     0.30200
F2229       F  0.84596756  0.50088796  0.67660252    -0.19200
H2230       H  0.84910838  0.50997750  0.75496128     0.18600
H2231       H  0.85958869  0.63909072  0.67754405     0.18600
F2232       F  0.85955428  0.64849211  0.75519522    -0.19100
C2233       C  0.69505011  0.58674356  0.89168560    -0.20600
C2234       C  0.67356269  0.57589856  0.85645906    -0.08600
C2235       C  0.69496072  0.56598756  0.82095685     0.30200
C2236       C  0.73733187  0.56596057  0.82111978    -0.20600
C2237       C  0.75870329  0.57598646  0.85660578    -0.08600
C2238       C  0.73736580  0.58719619  0.89160327     0.30200
F2239       F  0.75766854  0.60004821  0.92505588    -0.19200
H2240       H  0.67899449  0.59564054  0.91894329     0.18600
H2241       H  0.75350891  0.55791589  0.79367146     0.18600
F2242       F  0.67490425  0.55576639  0.78638405    -0.19100
C2243       C  0.86317759  0.81931265  0.73811019    -0.20600
C2244       C  0.85890656  0.85625942  0.75906873    -0.08600
C2245       C  0.85277445  0.89235910  0.73696225     0.30200
C2246       C  0.85316042  0.89167250  0.69452885    -0.20600
C2247       C  0.85899092  0.85498210  0.67348853    -0.08600
C2248       C  0.86293795  0.81854420  0.69562858     0.30200
F2249       F  0.86670347  0.78224257  0.67637290    -0.19200
H2250       H  0.86668314  0.79101378  0.75468940     0.18600
H2251       H  0.84777254  0.91966337  0.67798013     0.18600
F2252       F  0.84460876  0.92790571  0.75634916    -0.19100
C2253       C  0.73810019  0.89416994  0.85118091    -0.20600
C2254       C  0.75936541  0.85741299  0.85591366    -0.08600
C2255       C  0.73765317  0.82078280  0.85870589     0.30200
C2256       C  0.69550747  0.82117206  0.85889569    -0.20600
C2257       C  0.67414345  0.85792538  0.85666481    -0.08600
C2258       C  0.69575178  0.89449666  0.85134601     0.30200
F2259       F  0.67602317  0.93012875  0.84448883    -0.19200
H2260       H  0.75431746  0.92250189  0.84657300     0.18600
H2261       H  0.67971189  0.79257496  0.86073209     0.18600
F2262       F  0.75702923  0.78451730  0.86162606    -0.19100
C2263       C  0.83499276  0.69508338  0.88819861    -0.20600
C2264       C  0.85926253  0.67375245  0.86054494    -0.08600
C2265       C  0.88521257  0.69537046  0.83462101     0.30200
C2266       C  0.88457136  0.73795416  0.83419739    -0.20600
C2267       C  0.85912741  0.75930846  0.86063553    -0.08600
C2268       C  0.83539702  0.73776182  0.88874855     0.30200
F2269       F  0.81256123  0.75796878  0.91641640    -0.19200
H2270       H  0.81569784  0.67864974  0.90913912     0.18600
H2271       H  0.90400671  0.75433309  0.81335329     0.18600
F2272       F  0.91130655  0.67528954  0.80997697    -0.19100
loop_ 
_geom_bond_atom_site_label_1 
_geom_bond_atom_site_label_2 
_geom_bond_distance 
_geom_bond_site_symmetry_2 
_ccdc_geom_bond_type 
C1            H2   1.102       .  S
C1            C7   1.526       .  S
C1            C6   1.531       .  S
C1            C5   1.529       .  S
C3            H4   1.111       .  S
C3            C9   1.557       .  S
C3            C8   1.561       .  S
C3           C10   1.560       .  S
C5            C8   1.371       .  D
C5          C150   1.497       .  S
C6            C9   1.371       .  D
C6          C106   1.500       .  S
C7           C10   1.364       .  D
C7          C161   1.486       .  S
C8          C266   1.478       .  S
C9          C256   1.477       .  S
C10         C279   1.472       .  S
C11          H12   1.101       .  S
C11          C17   1.532       .  S
C11          C16   1.529       .  S
C11          C15   1.528       .  S
C13          H14   1.111       .  S
C13          C19   1.558       .  S
C13          C18   1.561       .  S
C13          C20   1.562       .  S
C15          C18   1.371       .  D
C15         C147   1.496       .  S
C16          C19   1.363       .  D
C16         C136   1.494       .  S
C17          C20   1.374       .  D
C17         C107   1.500       .  S
C18         C249   1.475       .  S
C19         C276   1.474       .  S
C20         C236   1.481       .  S
C21          H22   1.102       .  S
C21          C27   1.527       .  S
C21          C26   1.525       .  S
C21          C25   1.534       .  S
C23          H24   1.111       .  S
C23          C29   1.561       .  S
C23          C28   1.558       .  S
C23          C30   1.563       .  S
C25          C28   1.369       .  D
C25         C119   1.499       .  S
C26          C29   1.366       .  D
C26         C105   1.489       .  S
C27          C30   1.368       .  D
C27         C134   1.496       .  S
C28         C246   1.478       .  S
C29         C216   1.471       .  S
C30         C229   1.473       .  S
C31          H32   1.101       .  S
C31          C37   1.528       .  S
C31          C36   1.528       .  S
C31          C35   1.530       .  S
C33          H34   1.111       .  S
C33          C39   1.560       .  S
C33          C38   1.562       .  S
C33          C40   1.560       .  S
C35          C38   1.373       .  D
C35         C122   1.499       .  S
C36          C39   1.365       .  D
C36         C163   1.490       .  S
C37          C40   1.367       .  D
C37         C108   1.492       .  S
C38         C269   1.480       .  S
C39         C226   1.478       .  S
C40         C209   1.473       .  S
C41          H42   1.100       .  S
C41          C47   1.531       .  S
C41          C46   1.527       .  S
C41          C45   1.526       .  S
C43          H44   1.111       .  S
C43          C49   1.559       .  S
C43          C48   1.560       .  S
C43          C50   1.559       .  S
C45          C48   1.371       .  D
C45         C120   1.491       .  S
C46          C49   1.364       .  D
C46          C94   1.490       .  S
C47          C50   1.369       .  D
C47         C162   1.498       .  S
C48         C199   1.475       .  S
C49         C206   1.476       .  S
C50         C189   1.478       .  S
C51          H52   1.102       .  S
C51          C57   1.531       .  S
C51          C56   1.526       .  S
C51          C55   1.527       .  S
C53          H54   1.111       .  S
C53          C59   1.563       .  S
C53          C58   1.556       .  S
C53          C60   1.560       .  S
C55          C58   1.363       .  D
C55         C164   1.489       .  S
C56          C59   1.374       .  D
C56          C92   1.494       .  S
C57          C60   1.372       .  D
C57         C148   1.503       .  S
C58         C176   1.472       .  S
C59         C259   1.480       .  S
C60         C196   1.479       .  S
C61          H62   1.102       .  S
C61          C67   1.528       .  S
C61          C66   1.527       .  S
C61          C65   1.530       .  S
C63          H64   1.110       .  S
C63          C69   1.565       .  S
C63          C68   1.559       .  S
C63          C70   1.557       .  S
C65          C68   1.370       .  D
C65         C121   1.495       .  S
C66          C69   1.374       .  D
C66         C135   1.492       .  S
C67          C70   1.362       .  D
C67          C91   1.495       .  S
C68         C166   1.479       .  S
C69         C186   1.480       .  S
C70         C219   1.474       .  S
C71          H72   1.102       .  S
C71          C77   1.525       .  S
C71          C76   1.531       .  S
C71          C75   1.532       .  S
C73          H74   1.111       .  S
C73          C79   1.559       .  S
C73          C78   1.556       .  S
C73          C80   1.556       .  S
C75          C78   1.372       .  D
C75         C149   1.494       .  S
C76          C79   1.372       .  D
C76          C93   1.494       .  S
C77          C80   1.363       .  D
C77         C133   1.492       .  S
C78         C169   1.477       .  S
C79         C239   1.478       .  S
C80         C179   1.468       .  S
O81          C91   1.257   1_655  A
O81        V1793   1.856   1_545  S
O82          C92   1.256       .  A
O82          V89   1.851       .  S
O83          C93   1.255   1_565  A
O83         V657   1.849       .  S
O84          C94   1.254       .  A
O84        V1225   1.845   1_455  S
O85          C94   1.276       .  A
O85        V1226   1.953   1_455  S
O86          C93   1.278       .  A
O86         V658   1.955   1_545  S
O87          C92   1.275       .  A
O87          V90   1.951       .  S
O88          C91   1.277       .  A
O88        V1794   1.953   1_445  S
V89        O1785   1.856       .  S
V89         O651   1.849       .  S
V89        O1220   1.845       .  S
V89          V90   2.044       .  T
V90        O1221   1.953       .  S
V90         O654   1.955       .  S
V90        O1792   1.953       .  S
O95         C105   1.275       .  A
O95        V1807   1.951   1_445  S
O96         C106   1.277       .  A
O96         V103   1.954       .  S
O97         C107   1.278       .  A
O97         V671   1.959   1_545  S
O98         C108   1.277       .  A
O98        V1239   1.955   1_455  S
O99         C108   1.255       .  A
O99        V1240   1.848   1_455  S
O100        C107   1.255   1_565  A
O100        V672   1.850       .  S
O101        C106   1.256       .  A
O101        V104   1.854       .  S
O102        C105   1.256   1_655  A
O102       V1808   1.850   1_545  S
V103       O1799   1.951       .  S
V103        O665   1.959       .  S
V103       O1234   1.955       .  S
V103        V104   2.043       .  T
V104       O1235   1.848       .  S
V104        O668   1.850       .  S
V104       O1806   1.850       .  S
O109        C119   1.255   1_565  A
O109        V685   1.851       .  S
O110        C120   1.255       .  A
O110        V401   1.847   1_554  S
O111        C121   1.256   1_556  A
O111        V969   1.850   1_545  S
O112        C122   1.256       .  A
O112        V117   1.853       .  S
O113        C122   1.277       .  A
O113        V118   1.954       .  S
O114        C121   1.277       .  A
O114        V970   1.956   1_544  S
O115        C120   1.277       .  A
O115        V402   1.954   1_554  S
O116        C119   1.279       .  A
O116        V686   1.960   1_545  S
V117        O677   1.851       .  S
V117        O394   1.847       .  S
V117        O963   1.850       .  S
V117        V118   2.038       .  T
V118        O966   1.956       .  S
V118        O399   1.954       .  S
V118        O684   1.960       .  S
O123        C133   1.256       .  A
O123        V415   1.854   1_554  S
O124        C134   1.256   1_655  A
O124       V1267   1.850       .  S
O125        C135   1.255   1_556  A
O125       V1551   1.848   1_455  S
O126        C136   1.255       .  A
O126        V131   1.851       .  S
O127        C136   1.277       .  A
O127        V132   1.954       .  S
O128        C135   1.276       .  A
O128       V1552   1.952   1_454  S
O129        C134   1.277       .  A
O129       V1268   1.957   1_455  S
O130        C133   1.277       .  A
O130        V416   1.953   1_554  S
V131        O407   1.854       .  S
V131       O1260   1.850       .  S
V131       O1545   1.848       .  S
V131        V132   2.046       .  T
V132       O1548   1.952       .  S
V132       O1265   1.957       .  S
V132        O414   1.953       .  S
O137        C147   1.278       .  A
O137        V713   1.958   1_545  S
O138        C148   1.279       .  A
O138        V429   1.961   1_554  S
O139        C149   1.278       .  A
O139        V997   1.957   1_544  S
O140        C150   1.277       .  A
O140        V145   1.954       .  S
O141        C150   1.256       .  A
O141        V146   1.851       .  S
O142        C149   1.255   1_556  A
O142        V998   1.850   1_545  S
O143        C148   1.257       .  A
O143        V430   1.856   1_554  S
O144        C147   1.256   1_565  A
O144        V714   1.851       .  S
V145        O705   1.958       .  S
V145        O422   1.961       .  S
V145        O991   1.957       .  S
V145        V146   2.037       .  T
V146        O994   1.850       .  S
V146        O427   1.856       .  S
V146        O712   1.851       .  S
O151        C161   1.254       .  A
O151        V159   1.846       .  S
O152        C162   1.255   1_556  A
O152       V1579   1.850   1_455  S
O153        C163   1.256   1_655  A
O153       V1295   1.851       .  S
O154        C164   1.257       .  A
O154        V443   1.851   1_554  S
O155        C164   1.275       .  A
O155        V444   1.949   1_554  S
O156        C163   1.276       .  A
O156       V1296   1.951   1_455  S
O157        C162   1.278       .  A
O157       V1580   1.955   1_454  S
O158        C161   1.276       .  A
O158        V160   1.951       .  S
V159       O1572   1.850       .  S
V159       O1289   1.851       .  S
V159        O438   1.851       .  S
V159        V160   2.046       .  T
V160        O439   1.949       .  S
V160       O1292   1.951       .  S
V160       O1577   1.955       .  S
C165        C166   1.404       .  A
C165        C170   1.398       .  A
C165        H172   1.083       .  S
C166        C167   1.405       .  A
C167        C168   1.397       .  A
C167        F174   1.357       .  S
C168        C169   1.402       .  A
C168        H173   1.084       .  S
C169        C170   1.402       .  A
C170        F171   1.353       .  S
C175        C176   1.402       .  A
C175        C180   1.398       .  A
C175        H182   1.083       .  S
C176        C177   1.403       .  A
C177        C178   1.397       .  A
C177        F184   1.357       .  S
C178        C179   1.401       .  A
C178        H183   1.084       .  S
C179        C180   1.402       .  A
C180        F181   1.357       .  S
C185        C186   1.406       .  A
C185        C190   1.401       .  A
C185        H192   1.083       .  S
C186        C187   1.402       .  A
C187        C188   1.387       .  A
C187        F194   1.352       .  S
C188        C189   1.397       .  A
C188        H193   1.077       .  S
C189        C190   1.408       .  A
C190        F191   1.357       .  S
C195        C196   1.404       .  A
C195        C200   1.398       .  A
C195        H202   1.083       .  S
C196        C197   1.406       .  A
C197        C198   1.395       .  A
C197        F204   1.355       .  S
C198        C199   1.401       .  A
C198        H203   1.084       .  S
C199        C200   1.405       .  A
C200        F201   1.357       .  S
C205        C206   1.400       .  A
C205        C210   1.396       .  A
C205        H212   1.079       .  S
C206        C207   1.405       .  A
C207        C208   1.400       .  A
C207        F214   1.356       .  S
C208        C209   1.403       .  A
C208        H213   1.083       .  S
C209        C210   1.402       .  A
C210        F211   1.357       .  S
C215        C216   1.403       .  A
C215        C220   1.399       .  A
C215        H222   1.083       .  S
C216        C217   1.401       .  A
C217        C218   1.397       .  A
C217        F224   1.357       .  S
C218        C219   1.401       .  A
C218        H223   1.081       .  S
C219        C220   1.403       .  A
C220        F221   1.357       .  S
C225        C226   1.401       .  A
C225        C230   1.395       .  A
C225        H232   1.077       .  S
C226        C227   1.405       .  A
C227        C228   1.401       .  A
C227        F234   1.357       .  S
C228        C229   1.404       .  A
C228        H233   1.083       .  S
C229        C230   1.400       .  A
C230        F231   1.358       .  S
C235        C236   1.405       .  A
C235        C240   1.399       .  A
C235        H242   1.082       .  S
C236        C237   1.405       .  A
C237        C238   1.393       .  A
C237        F244   1.354       .  S
C238        C239   1.400       .  A
C238        H243   1.083       .  S
C239        C240   1.407       .  A
C240        F241   1.357       .  S
C245        C246   1.403       .  A
C245        C250   1.398       .  A
C245        H252   1.084       .  S
C246        C247   1.406       .  A
C247        C248   1.400       .  A
C247        F254   1.356       .  S
C248        C249   1.401       .  A
C248        H253   1.084       .  S
C249        C250   1.401       .  A
C250        F251   1.354       .  S
C255        C256   1.402       .  A
C255        C260   1.398       .  A
C255        H262   1.083       .  S
C256        C257   1.405       .  A
C257        C258   1.396       .  A
C257        F264   1.357       .  S
C258        C259   1.402       .  A
C258        H263   1.082       .  S
C259        C260   1.406       .  A
C260        F261   1.355       .  S
C265        C266   1.405       .  A
C265        C270   1.399       .  A
C265        H272   1.083       .  S
C266        C267   1.402       .  A
C267        C268   1.393       .  A
C267        F274   1.355       .  S
C268        C269   1.400       .  A
C268        H273   1.075       .  S
C269        C270   1.407       .  A
C270        F271   1.358       .  S
C275        C276   1.402       .  A
C275        C280   1.400       .  A
C275        H282   1.083       .  S
C276        C277   1.403       .  A
C277        C278   1.397       .  A
C277        F284   1.357       .  S
C278        C279   1.400       .  A
C278        H283   1.083       .  S
C279        C280   1.405       .  A
C280        F281   1.357       .  S
C285        H286   1.102       .  S
C285        C291   1.526       .  S
C285        C290   1.531       .  S
C285        C289   1.529       .  S
C287        H288   1.111       .  S
C287        C293   1.557       .  S
C287        C292   1.561       .  S
C287        C294   1.560       .  S
C289        C292   1.371       .  D
C289        C434   1.497       .  S
C290        C293   1.371       .  D
C290        C390   1.500       .  S
C291        C294   1.364       .  D
C291        C445   1.486       .  S
C292        C550   1.478       .  S
C293        C540   1.477       .  S
C294        C563   1.472       .  S
C295        H296   1.101       .  S
C295        C301   1.532       .  S
C295        C300   1.529       .  S
C295        C299   1.528       .  S
C297        H298   1.111       .  S
C297        C303   1.558       .  S
C297        C302   1.561       .  S
C297        C304   1.562       .  S
C299        C302   1.371       .  D
C299        C431   1.496       .  S
C300        C303   1.363       .  D
C300        C420   1.494       .  S
C301        C304   1.374       .  D
C301        C391   1.500       .  S
C302        C533   1.475       .  S
C303        C560   1.474       .  S
C304        C520   1.481       .  S
C305        H306   1.102       .  S
C305        C311   1.527       .  S
C305        C310   1.525       .  S
C305        C309   1.534       .  S
C307        H308   1.111       .  S
C307        C313   1.561       .  S
C307        C312   1.558       .  S
C307        C314   1.563       .  S
C309        C312   1.369       .  D
C309        C403   1.499       .  S
C310        C313   1.366       .  D
C310        C389   1.489       .  S
C311        C314   1.368       .  D
C311        C418   1.496       .  S
C312        C530   1.478       .  S
C313        C500   1.471       .  S
C314        C513   1.473       .  S
C315        H316   1.101       .  S
C315        C321   1.528       .  S
C315        C320   1.528       .  S
C315        C319   1.530       .  S
C317        H318   1.111       .  S
C317        C323   1.560       .  S
C317        C322   1.562       .  S
C317        C324   1.560       .  S
C319        C322   1.373       .  D
C319        C406   1.499       .  S
C320        C323   1.365       .  D
C320        C447   1.490       .  S
C321        C324   1.367       .  D
C321        C392   1.492       .  S
C322        C553   1.480       .  S
C323        C510   1.478       .  S
C324        C493   1.473       .  S
C325        H326   1.100       .  S
C325        C331   1.531       .  S
C325        C330   1.527       .  S
C325        C329   1.526       .  S
C327        H328   1.111       .  S
C327        C333   1.559       .  S
C327        C332   1.560       .  S
C327        C334   1.559       .  S
C329        C332   1.371       .  D
C329        C404   1.491       .  S
C330        C333   1.364       .  D
C330        C378   1.490       .  S
C331        C334   1.369       .  D
C331        C446   1.498       .  S
C332        C483   1.475       .  S
C333        C490   1.476       .  S
C334        C473   1.478       .  S
C335        H336   1.102       .  S
C335        C341   1.531       .  S
C335        C340   1.526       .  S
C335        C339   1.527       .  S
C337        H338   1.111       .  S
C337        C343   1.563       .  S
C337        C342   1.556       .  S
C337        C344   1.560       .  S
C339        C342   1.363       .  D
C339        C448   1.489       .  S
C340        C343   1.374       .  D
C340        C376   1.494       .  S
C341        C344   1.372       .  D
C341        C432   1.503       .  S
C342        C460   1.472       .  S
C343        C543   1.480       .  S
C344        C480   1.479       .  S
C345        H346   1.102       .  S
C345        C351   1.528       .  S
C345        C350   1.527       .  S
C345        C349   1.530       .  S
C347        H348   1.110       .  S
C347        C353   1.565       .  S
C347        C352   1.559       .  S
C347        C354   1.557       .  S
C349        C352   1.370       .  D
C349        C405   1.495       .  S
C350        C353   1.374       .  D
C350        C419   1.492       .  S
C351        C354   1.362       .  D
C351        C375   1.495       .  S
C352        C450   1.479       .  S
C353        C470   1.480       .  S
C354        C503   1.474       .  S
C355        H356   1.102       .  S
C355        C361   1.525       .  S
C355        C360   1.531       .  S
C355        C359   1.532       .  S
C357        H358   1.111       .  S
C357        C363   1.559       .  S
C357        C362   1.556       .  S
C357        C364   1.556       .  S
C359        C362   1.372       .  D
C359        C433   1.494       .  S
C360        C363   1.372       .  D
C360        C377   1.494       .  S
C361        C364   1.363       .  D
C361        C417   1.492       .  S
C362        C453   1.477       .  S
C363        C523   1.478       .  S
C364        C463   1.468       .  S
O365        C375   1.257   1_655  A
O365       V2077   1.856   1_545  S
O366        C376   1.256       .  A
O366        V373   1.851       .  S
O367        C377   1.255   1_565  A
O367        V941   1.849       .  S
O368        C378   1.254       .  A
O368       V1509   1.845   1_455  S
O369        C378   1.276       .  A
O369       V1510   1.953   1_455  S
O370        C377   1.278       .  A
O370        V942   1.955   1_545  S
O371        C376   1.275       .  A
O371        V374   1.951       .  S
O372        C375   1.277       .  A
O372       V2078   1.953   1_445  S
V373       O2069   1.856       .  S
V373        O935   1.849       .  S
V373       O1504   1.845       .  S
V373        V374   2.044       .  T
V374       O1505   1.953       .  S
V374        O938   1.955       .  S
V374       O2076   1.953       .  S
O379        C389   1.275       .  A
O379       V2091   1.951   1_445  S
O380        C390   1.277       .  A
O380        V387   1.954       .  S
O381        C391   1.278       .  A
O381        V955   1.959   1_545  S
O382        C392   1.277       .  A
O382       V1523   1.955   1_455  S
O383        C392   1.255       .  A
O383       V1524   1.848   1_455  S
O384        C391   1.255   1_565  A
O384        V956   1.850       .  S
O385        C390   1.256       .  A
O385        V388   1.854       .  S
O386        C389   1.256   1_655  A
O386       V2092   1.850   1_545  S
V387       O2083   1.951       .  S
V387        O949   1.959       .  S
V387       O1518   1.955       .  S
V387        V388   2.043       .  T
V388       O1519   1.848       .  S
V388        O952   1.850       .  S
V388       O2090   1.850       .  S
O393        C403   1.255   1_565  A
O393        V969   1.851       .  S
O394        C404   1.255       .  A
O395        C405   1.256       .  A
O395        V685   1.850   1_545  S
O396        C406   1.256       .  A
O396        V401   1.853       .  S
O397        C406   1.277       .  A
O397        V402   1.954       .  S
O398        C405   1.277       .  A
O398        V686   1.956   1_545  S
O399        C404   1.277       .  A
O400        C403   1.279       .  A
O400        V970   1.960   1_545  S
V401        O961   1.851       .  S
V401        O679   1.850       .  S
V401        V402   2.038       .  T
V402        O682   1.956   1_556  S
V402        O968   1.960       .  S
O407        C417   1.256       .  A
O408        C418   1.256   1_655  A
O408       V1551   1.850       .  S
O409        C419   1.255       .  A
O409       V1267   1.848   1_455  S
O410        C420   1.255       .  A
O410        V415   1.851       .  S
O411        C420   1.277       .  A
O411        V416   1.954       .  S
O412        C419   1.276       .  A
O412       V1268   1.952   1_455  S
O413        C418   1.277       .  A
O413       V1552   1.957   1_455  S
O414        C417   1.277       .  A
V415       O1544   1.850       .  S
V415       O1261   1.848       .  S
V415        V416   2.046       .  T
V416       O1264   1.952   1_556  S
V416       O1549   1.957       .  S
O421        C431   1.278       .  A
O421        V997   1.958   1_545  S
O422        C432   1.279       .  A
O423        C433   1.278       .  A
O423        V713   1.957   1_545  S
O424        C434   1.277       .  A
O424        V429   1.954       .  S
O425        C434   1.256       .  A
O425        V430   1.851       .  S
O426        C433   1.255       .  A
O426        V714   1.850   1_545  S
O427        C432   1.257       .  A
O428        C431   1.256   1_565  A
O428        V998   1.851       .  S
V429        O989   1.958       .  S
V429        O707   1.957   1_556  S
V429        V430   2.037       .  T
V430        O710   1.850       .  S
V430        O996   1.851       .  S
O435        C445   1.254       .  A
O435        V443   1.846       .  S
O436        C446   1.255       .  A
O436       V1295   1.850   1_455  S
O437        C447   1.256   1_655  A
O437       V1579   1.851       .  S
O438        C448   1.257       .  A
O439        C448   1.275       .  A
O440        C447   1.276       .  A
O440       V1580   1.951   1_455  S
O441        C446   1.278       .  A
O441       V1296   1.955   1_455  S
O442        C445   1.276       .  A
O442        V444   1.951       .  S
V443       O1288   1.850       .  S
V443       O1573   1.851       .  S
V443        V444   2.046       .  T
V444       O1576   1.951       .  S
V444       O1293   1.955   1_556  S
C449        C450   1.404       .  A
C449        C454   1.398       .  A
C449        H456   1.083       .  S
C450        C451   1.405       .  A
C451        C452   1.397       .  A
C451        F458   1.357       .  S
C452        C453   1.402       .  A
C452        H457   1.084       .  S
C453        C454   1.402       .  A
C454        F455   1.353       .  S
C459        C460   1.402       .  A
C459        C464   1.398       .  A
C459        H466   1.083       .  S
C460        C461   1.403       .  A
C461        C462   1.397       .  A
C461        F468   1.357       .  S
C462        C463   1.401       .  A
C462        H467   1.084       .  S
C463        C464   1.402       .  A
C464        F465   1.357       .  S
C469        C470   1.406       .  A
C469        C474   1.401       .  A
C469        H476   1.083       .  S
C470        C471   1.402       .  A
C471        C472   1.387       .  A
C471        F478   1.352       .  S
C472        C473   1.397       .  A
C472        H477   1.077       .  S
C473        C474   1.408       .  A
C474        F475   1.357       .  S
C479        C480   1.404       .  A
C479        C484   1.398       .  A
C479        H486   1.083       .  S
C480        C481   1.406       .  A
C481        C482   1.395       .  A
C481        F488   1.355       .  S
C482        C483   1.401       .  A
C482        H487   1.084       .  S
C483        C484   1.405       .  A
C484        F485   1.357       .  S
C489        C490   1.400       .  A
C489        C494   1.396       .  A
C489        H496   1.079       .  S
C490        C491   1.405       .  A
C491        C492   1.400       .  A
C491        F498   1.356       .  S
C492        C493   1.403       .  A
C492        H497   1.083       .  S
C493        C494   1.402       .  A
C494        F495   1.357       .  S
C499        C500   1.403       .  A
C499        C504   1.399       .  A
C499        H506   1.083       .  S
C500        C501   1.401       .  A
C501        C502   1.397       .  A
C501        F508   1.357       .  S
C502        C503   1.401       .  A
C502        H507   1.081       .  S
C503        C504   1.403       .  A
C504        F505   1.357       .  S
C509        C510   1.401       .  A
C509        C514   1.395       .  A
C509        H516   1.077       .  S
C510        C511   1.405       .  A
C511        C512   1.401       .  A
C511        F518   1.357       .  S
C512        C513   1.404       .  A
C512        H517   1.083       .  S
C513        C514   1.400       .  A
C514        F515   1.358       .  S
C519        C520   1.405       .  A
C519        C524   1.399       .  A
C519        H526   1.082       .  S
C520        C521   1.405       .  A
C521        C522   1.393       .  A
C521        F528   1.354       .  S
C522        C523   1.400       .  A
C522        H527   1.083       .  S
C523        C524   1.407       .  A
C524        F525   1.357       .  S
C529        C530   1.403       .  A
C529        C534   1.398       .  A
C529        H536   1.084       .  S
C530        C531   1.406       .  A
C531        C532   1.400       .  A
C531        F538   1.356       .  S
C532        C533   1.401       .  A
C532        H537   1.084       .  S
C533        C534   1.401       .  A
C534        F535   1.354       .  S
C539        C540   1.402       .  A
C539        C544   1.398       .  A
C539        H546   1.083       .  S
C540        C541   1.405       .  A
C541        C542   1.396       .  A
C541        F548   1.357       .  S
C542        C543   1.402       .  A
C542        H547   1.082       .  S
C543        C544   1.406       .  A
C544        F545   1.355       .  S
C549        C550   1.405       .  A
C549        C554   1.399       .  A
C549        H556   1.083       .  S
C550        C551   1.402       .  A
C551        C552   1.393       .  A
C551        F558   1.355       .  S
C552        C553   1.400       .  A
C552        H557   1.075       .  S
C553        C554   1.407       .  A
C554        F555   1.358       .  S
C559        C560   1.402       .  A
C559        C564   1.400       .  A
C559        H566   1.083       .  S
C560        C561   1.403       .  A
C561        C562   1.397       .  A
C561        F568   1.357       .  S
C562        C563   1.400       .  A
C562        H567   1.083       .  S
C563        C564   1.405       .  A
C564        F565   1.357       .  S
C569        H570   1.102       .  S
C569        C575   1.526       .  S
C569        C574   1.531       .  S
C569        C573   1.529       .  S
C571        H572   1.111       .  S
C571        C577   1.557       .  S
C571        C576   1.561       .  S
C571        C578   1.560       .  S
C573        C576   1.371       .  D
C573        C718   1.497       .  S
C574        C577   1.371       .  D
C574        C674   1.500       .  S
C575        C578   1.364       .  D
C575        C729   1.486       .  S
C576        C834   1.478       .  S
C577        C824   1.477       .  S
C578        C847   1.472       .  S
C579        H580   1.101       .  S
C579        C585   1.532       .  S
C579        C584   1.529       .  S
C579        C583   1.528       .  S
C581        H582   1.111       .  S
C581        C587   1.558       .  S
C581        C586   1.561       .  S
C581        C588   1.562       .  S
C583        C586   1.371       .  D
C583        C715   1.496       .  S
C584        C587   1.363       .  D
C584        C704   1.494       .  S
C585        C588   1.374       .  D
C585        C675   1.500       .  S
C586        C817   1.475       .  S
C587        C844   1.474       .  S
C588        C804   1.481       .  S
C589        H590   1.102       .  S
C589        C595   1.527       .  S
C589        C594   1.525       .  S
C589        C593   1.534       .  S
C591        H592   1.111       .  S
C591        C597   1.561       .  S
C591        C596   1.558       .  S
C591        C598   1.563       .  S
C593        C596   1.369       .  D
C593        C687   1.499       .  S
C594        C597   1.366       .  D
C594        C673   1.489       .  S
C595        C598   1.368       .  D
C595        C702   1.496       .  S
C596        C814   1.478       .  S
C597        C784   1.471       .  S
C598        C797   1.473       .  S
C599        H600   1.101       .  S
C599        C605   1.528       .  S
C599        C604   1.528       .  S
C599        C603   1.530       .  S
C601        H602   1.111       .  S
C601        C607   1.560       .  S
C601        C606   1.562       .  S
C601        C608   1.560       .  S
C603        C606   1.373       .  D
C603        C690   1.499       .  S
C604        C607   1.365       .  D
C604        C731   1.490       .  S
C605        C608   1.367       .  D
C605        C676   1.492       .  S
C606        C837   1.480       .  S
C607        C794   1.478       .  S
C608        C777   1.473       .  S
C609        H610   1.100       .  S
C609        C615   1.531       .  S
C609        C614   1.527       .  S
C609        C613   1.526       .  S
C611        H612   1.111       .  S
C611        C617   1.559       .  S
C611        C616   1.560       .  S
C611        C618   1.559       .  S
C613        C616   1.371       .  D
C613        C688   1.491       .  S
C614        C617   1.364       .  D
C614        C662   1.490       .  S
C615        C618   1.369       .  D
C615        C730   1.498       .  S
C616        C767   1.475       .  S
C617        C774   1.476       .  S
C618        C757   1.478       .  S
C619        H620   1.102       .  S
C619        C625   1.531       .  S
C619        C624   1.526       .  S
C619        C623   1.527       .  S
C621        H622   1.111       .  S
C621        C627   1.563       .  S
C621        C626   1.556       .  S
C621        C628   1.560       .  S
C623        C626   1.363       .  D
C623        C732   1.489       .  S
C624        C627   1.374       .  D
C624        C660   1.494       .  S
C625        C628   1.372       .  D
C625        C716   1.503       .  S
C626        C744   1.472       .  S
C627        C827   1.480       .  S
C628        C764   1.479       .  S
C629        H630   1.102       .  S
C629        C635   1.528       .  S
C629        C634   1.527       .  S
C629        C633   1.530       .  S
C631        H632   1.110       .  S
C631        C637   1.565       .  S
C631        C636   1.559       .  S
C631        C638   1.557       .  S
C633        C636   1.370       .  D
C633        C689   1.495       .  S
C634        C637   1.374       .  D
C634        C703   1.492       .  S
C635        C638   1.362       .  D
C635        C659   1.495       .  S
C636        C734   1.479       .  S
C637        C754   1.480       .  S
C638        C787   1.474       .  S
C639        H640   1.102       .  S
C639        C645   1.525       .  S
C639        C644   1.531       .  S
C639        C643   1.532       .  S
C641        H642   1.111       .  S
C641        C647   1.559       .  S
C641        C646   1.556       .  S
C641        C648   1.556       .  S
C643        C646   1.372       .  D
C643        C717   1.494       .  S
C644        C647   1.372       .  D
C644        C661   1.494       .  S
C645        C648   1.363       .  D
C645        C701   1.492       .  S
C646        C737   1.477       .  S
C647        C807   1.478       .  S
C648        C747   1.468       .  S
O649        C659   1.257   1_655  A
O649       V1225   1.856       .  S
O650        C660   1.256       .  A
O650        V657   1.851       .  S
O651        C661   1.255       .  A
O652        C662   1.254       .  A
O652       V1793   1.845   1_455  S
O653        C662   1.276       .  A
O653       V1794   1.953   1_455  S
O654        C661   1.278       .  A
O655        C660   1.275       .  A
O655        V658   1.951       .  S
O656        C659   1.277       .  A
O656       V1226   1.953   1_455  S
V657       O1217   1.856   1_565  S
V657       O1788   1.845       .  S
V657        V658   2.044       .  T
V658       O1789   1.953       .  S
V658       O1224   1.953   1_565  S
O663        C673   1.275       .  A
O663       V1239   1.951   1_455  S
O664        C674   1.277       .  A
O664        V671   1.954       .  S
O665        C675   1.278       .  A
O666        C676   1.277       .  A
O666       V1807   1.955   1_455  S
O667        C676   1.255       .  A
O667       V1808   1.848   1_455  S
O668        C675   1.255       .  A
O669        C674   1.256       .  A
O669        V672   1.854       .  S
O670        C673   1.256   1_655  A
O670       V1240   1.850       .  S
V671       O1231   1.951   1_565  S
V671       O1802   1.955       .  S
V671        V672   2.043       .  T
V672       O1803   1.848       .  S
V672       O1238   1.850   1_565  S
O677        C687   1.255       .  A
O678        C688   1.255       .  A
O678        V969   1.847   1_554  S
O679        C689   1.256   1_556  A
O680        C690   1.256       .  A
O680        V685   1.853       .  S
O681        C690   1.277       .  A
O681        V686   1.954       .  S
O682        C689   1.277       .  A
O683        C688   1.277       .  A
O683        V970   1.954   1_554  S
O684        C687   1.279       .  A
V685        O962   1.847       .  S
V685        V686   2.038       .  T
V686        O967   1.954       .  S
O691        C701   1.256       .  A
O691        V983   1.854   1_554  S
O692        C702   1.256   1_655  A
O692       V1835   1.850       .  S
O693        C703   1.255   1_556  A
O693       V2119   1.848   1_455  S
O694        C704   1.255       .  A
O694        V699   1.851       .  S
O695        C704   1.277       .  A
O695        V700   1.954       .  S
O696        C703   1.276       .  A
O696       V2120   1.952   1_454  S
O697        C702   1.277       .  A
O697       V1836   1.957   1_455  S
O698        C701   1.277       .  A
O698        V984   1.953   1_554  S
V699        O975   1.854       .  S
V699       O1828   1.850       .  S
V699       O2113   1.848       .  S
V699        V700   2.046       .  T
V700       O2116   1.952       .  S
V700       O1833   1.957       .  S
V700        O982   1.953       .  S
O705        C715   1.278       .  A
O706        C716   1.279       .  A
O706        V997   1.961   1_554  S
O707        C717   1.278       .  A
O708        C718   1.277       .  A
O708        V713   1.954       .  S
O709        C718   1.256       .  A
O709        V714   1.851       .  S
O710        C717   1.255   1_556  A
O711        C716   1.257       .  A
O711        V998   1.856   1_554  S
O712        C715   1.256       .  A
V713        O990   1.961       .  S
V713        V714   2.037       .  T
V714        O995   1.856       .  S
O719        C729   1.254       .  A
O719        V727   1.846       .  S
O720        C730   1.255   1_556  A
O720       V2147   1.850   1_455  S
O721        C731   1.256   1_655  A
O721       V1863   1.851       .  S
O722        C732   1.257       .  A
O722       V1011   1.851   1_554  S
O723        C732   1.275       .  A
O723       V1012   1.949   1_554  S
O724        C731   1.276       .  A
O724       V1864   1.951   1_455  S
O725        C730   1.278       .  A
O725       V2148   1.955   1_454  S
O726        C729   1.276       .  A
O726        V728   1.951       .  S
V727       O2140   1.850       .  S
V727       O1857   1.851       .  S
V727       O1006   1.851       .  S
V727        V728   2.046       .  T
V728       O1007   1.949       .  S
V728       O1860   1.951       .  S
V728       O2145   1.955       .  S
C733        C734   1.404       .  A
C733        C738   1.398       .  A
C733        H740   1.083       .  S
C734        C735   1.405       .  A
C735        C736   1.397       .  A
C735        F742   1.357       .  S
C736        C737   1.402       .  A
C736        H741   1.084       .  S
C737        C738   1.402       .  A
C738        F739   1.353       .  S
C743        C744   1.402       .  A
C743        C748   1.398       .  A
C743        H750   1.083       .  S
C744        C745   1.403       .  A
C745        C746   1.397       .  A
C745        F752   1.357       .  S
C746        C747   1.401       .  A
C746        H751   1.084       .  S
C747        C748   1.402       .  A
C748        F749   1.357       .  S
C753        C754   1.406       .  A
C753        C758   1.401       .  A
C753        H760   1.083       .  S
C754        C755   1.402       .  A
C755        C756   1.387       .  A
C755        F762   1.352       .  S
C756        C757   1.397       .  A
C756        H761   1.077       .  S
C757        C758   1.408       .  A
C758        F759   1.357       .  S
C763        C764   1.404       .  A
C763        C768   1.398       .  A
C763        H770   1.083       .  S
C764        C765   1.406       .  A
C765        C766   1.395       .  A
C765        F772   1.355       .  S
C766        C767   1.401       .  A
C766        H771   1.084       .  S
C767        C768   1.405       .  A
C768        F769   1.357       .  S
C773        C774   1.400       .  A
C773        C778   1.396       .  A
C773        H780   1.079       .  S
C774        C775   1.405       .  A
C775        C776   1.400       .  A
C775        F782   1.356       .  S
C776        C777   1.403       .  A
C776        H781   1.083       .  S
C777        C778   1.402       .  A
C778        F779   1.357       .  S
C783        C784   1.403       .  A
C783        C788   1.399       .  A
C783        H790   1.083       .  S
C784        C785   1.401       .  A
C785        C786   1.397       .  A
C785        F792   1.357       .  S
C786        C787   1.401       .  A
C786        H791   1.081       .  S
C787        C788   1.403       .  A
C788        F789   1.357       .  S
C793        C794   1.401       .  A
C793        C798   1.395       .  A
C793        H800   1.077       .  S
C794        C795   1.405       .  A
C795        C796   1.401       .  A
C795        F802   1.357       .  S
C796        C797   1.404       .  A
C796        H801   1.083       .  S
C797        C798   1.400       .  A
C798        F799   1.358       .  S
C803        C804   1.405       .  A
C803        C808   1.399       .  A
C803        H810   1.082       .  S
C804        C805   1.405       .  A
C805        C806   1.393       .  A
C805        F812   1.354       .  S
C806        C807   1.400       .  A
C806        H811   1.083       .  S
C807        C808   1.407       .  A
C808        F809   1.357       .  S
C813        C814   1.403       .  A
C813        C818   1.398       .  A
C813        H820   1.084       .  S
C814        C815   1.405       .  A
C815        C816   1.400       .  A
C815        F822   1.356       .  S
C816        C817   1.401       .  A
C816        H821   1.084       .  S
C817        C818   1.401       .  A
C818        F819   1.354       .  S
C823        C824   1.402       .  A
C823        C828   1.398       .  A
C823        H830   1.083       .  S
C824        C825   1.405       .  A
C825        C826   1.396       .  A
C825        F832   1.357       .  S
C826        C827   1.402       .  A
C826        H831   1.082       .  S
C827        C828   1.406       .  A
C828        F829   1.355       .  S
C833        C834   1.405       .  A
C833        C838   1.399       .  A
C833        H840   1.083       .  S
C834        C835   1.402       .  A
C835        C836   1.393       .  A
C835        F842   1.355       .  S
C836        C837   1.400       .  A
C836        H841   1.075       .  S
C837        C838   1.407       .  A
C838        F839   1.358       .  S
C843        C844   1.402       .  A
C843        C848   1.400       .  A
C843        H850   1.083       .  S
C844        C845   1.403       .  A
C845        C846   1.397       .  A
C845        F852   1.357       .  S
C846        C847   1.400       .  A
C846        H851   1.083       .  S
C847        C848   1.405       .  A
C848        F849   1.357       .  S
C853        H854   1.102       .  S
C853        C859   1.526       .  S
C853        C858   1.531       .  S
C853        C857   1.529       .  S
C855        H856   1.111       .  S
C855        C861   1.557       .  S
C855        C860   1.561       .  S
C855        C862   1.560       .  S
C857        C860   1.371       .  D
C857       C1002   1.497       .  S
C858        C861   1.371       .  D
C858        C958   1.500       .  S
C859        C862   1.364       .  D
C859       C1013   1.486       .  S
C860       C1118   1.478       .  S
C861       C1108   1.477       .  S
C862       C1131   1.472       .  S
C863        H864   1.101       .  S
C863        C869   1.532       .  S
C863        C868   1.529       .  S
C863        C867   1.528       .  S
C865        H866   1.111       .  S
C865        C871   1.558       .  S
C865        C870   1.561       .  S
C865        C872   1.562       .  S
C867        C870   1.371       .  D
C867        C999   1.496       .  S
C868        C871   1.363       .  D
C868        C988   1.494       .  S
C869        C872   1.374       .  D
C869        C959   1.500       .  S
C870       C1101   1.475       .  S
C871       C1128   1.474       .  S
C872       C1088   1.481       .  S
C873        H874   1.102       .  S
C873        C879   1.527       .  S
C873        C878   1.525       .  S
C873        C877   1.534       .  S
C875        H876   1.111       .  S
C875        C881   1.561       .  S
C875        C880   1.558       .  S
C875        C882   1.563       .  S
C877        C880   1.369       .  D
C877        C971   1.499       .  S
C878        C881   1.366       .  D
C878        C957   1.489       .  S
C879        C882   1.368       .  D
C879        C986   1.496       .  S
C880       C1098   1.478       .  S
C881       C1068   1.471       .  S
C882       C1081   1.473       .  S
C883        H884   1.101       .  S
C883        C889   1.528       .  S
C883        C888   1.528       .  S
C883        C887   1.530       .  S
C885        H886   1.111       .  S
C885        C891   1.560       .  S
C885        C890   1.562       .  S
C885        C892   1.560       .  S
C887        C890   1.373       .  D
C887        C974   1.499       .  S
C888        C891   1.365       .  D
C888       C1015   1.490       .  S
C889        C892   1.367       .  D
C889        C960   1.492       .  S
C890       C1121   1.480       .  S
C891       C1078   1.478       .  S
C892       C1061   1.473       .  S
C893        H894   1.100       .  S
C893        C899   1.531       .  S
C893        C898   1.527       .  S
C893        C897   1.526       .  S
C895        H896   1.111       .  S
C895        C901   1.559       .  S
C895        C900   1.560       .  S
C895        C902   1.559       .  S
C897        C900   1.371       .  D
C897        C972   1.491       .  S
C898        C901   1.364       .  D
C898        C946   1.490       .  S
C899        C902   1.369       .  D
C899       C1014   1.498       .  S
C900       C1051   1.475       .  S
C901       C1058   1.476       .  S
C902       C1041   1.478       .  S
C903        H904   1.102       .  S
C903        C909   1.531       .  S
C903        C908   1.526       .  S
C903        C907   1.527       .  S
C905        H906   1.111       .  S
C905        C911   1.563       .  S
C905        C910   1.556       .  S
C905        C912   1.560       .  S
C907        C910   1.363       .  D
C907       C1016   1.489       .  S
C908        C911   1.374       .  D
C908        C944   1.494       .  S
C909        C912   1.372       .  D
C909       C1000   1.503       .  S
C910       C1028   1.472       .  S
C911       C1111   1.480       .  S
C912       C1048   1.479       .  S
C913        H914   1.102       .  S
C913        C919   1.528       .  S
C913        C918   1.527       .  S
C913        C917   1.530       .  S
C915        H916   1.110       .  S
C915        C921   1.565       .  S
C915        C920   1.559       .  S
C915        C922   1.557       .  S
C917        C920   1.370       .  D
C917        C973   1.495       .  S
C918        C921   1.374       .  D
C918        C987   1.492       .  S
C919        C922   1.362       .  D
C919        C943   1.495       .  S
C920       C1018   1.479       .  S
C921       C1038   1.480       .  S
C922       C1071   1.474       .  S
C923        H924   1.102       .  S
C923        C929   1.525       .  S
C923        C928   1.531       .  S
C923        C927   1.532       .  S
C925        H926   1.111       .  S
C925        C931   1.559       .  S
C925        C930   1.556       .  S
C925        C932   1.556       .  S
C927        C930   1.372       .  D
C927       C1001   1.494       .  S
C928        C931   1.372       .  D
C928        C945   1.494       .  S
C929        C932   1.363       .  D
C929        C985   1.492       .  S
C930       C1021   1.477       .  S
C931       C1091   1.478       .  S
C932       C1031   1.468       .  S
O933        C943   1.257   1_655  A
O933       V1509   1.856       .  S
O934        C944   1.256       .  A
O934        V941   1.851       .  S
O935        C945   1.255       .  A
O936        C946   1.254       .  A
O936       V2077   1.845   1_455  S
O937        C946   1.276       .  A
O937       V2078   1.953   1_455  S
O938        C945   1.278       .  A
O939        C944   1.275       .  A
O939        V942   1.951       .  S
O940        C943   1.277       .  A
O940       V1510   1.953   1_455  S
V941       O1501   1.856   1_565  S
V941       O2072   1.845       .  S
V941        V942   2.044       .  T
V942       O2073   1.953       .  S
V942       O1508   1.953   1_565  S
O947        C957   1.275       .  A
O947       V1523   1.951   1_455  S
O948        C958   1.277       .  A
O948        V955   1.954       .  S
O949        C959   1.278       .  A
O950        C960   1.277       .  A
O950       V2091   1.955   1_455  S
O951        C960   1.255       .  A
O951       V2092   1.848   1_455  S
O952        C959   1.255       .  A
O953        C958   1.256       .  A
O953        V956   1.854       .  S
O954        C957   1.256   1_655  A
O954       V1524   1.850       .  S
V955       O1515   1.951   1_565  S
V955       O2086   1.955       .  S
V955        V956   2.043       .  T
V956       O2087   1.848       .  S
V956       O1522   1.850   1_565  S
O961        C971   1.255       .  A
O962        C972   1.255       .  A
O963        C973   1.256       .  A
O964        C974   1.256       .  A
O964        V969   1.853       .  S
O965        C974   1.277       .  A
O965        V970   1.954       .  S
O966        C973   1.277       .  A
O967        C972   1.277       .  A
O968        C971   1.279       .  A
V969        V970   2.038       .  T
O975        C985   1.256       .  A
O976        C986   1.256   1_655  A
O976       V2119   1.850       .  S
O977        C987   1.255       .  A
O977       V1835   1.848   1_455  S
O978        C988   1.255       .  A
O978        V983   1.851       .  S
O979        C988   1.277       .  A
O979        V984   1.954       .  S
O980        C987   1.276       .  A
O980       V1836   1.952   1_455  S
O981        C986   1.277       .  A
O981       V2120   1.957   1_455  S
O982        C985   1.277       .  A
V983       O2112   1.850       .  S
V983       O1829   1.848       .  S
V983        V984   2.046       .  T
V984       O1832   1.952   1_556  S
V984       O2117   1.957       .  S
O989        C999   1.278       .  A
O990       C1000   1.279       .  A
O991       C1001   1.278       .  A
O992       C1002   1.277       .  A
O992        V997   1.954       .  S
O993       C1002   1.256       .  A
O993        V998   1.851       .  S
O994       C1001   1.255       .  A
O995       C1000   1.257       .  A
O996        C999   1.256       .  A
V997        V998   2.037       .  T
O1003      C1013   1.254       .  A
O1003      V1011   1.846       .  S
O1004      C1014   1.255       .  A
O1004      V1863   1.850   1_455  S
O1005      C1015   1.256   1_655  A
O1005      V2147   1.851       .  S
O1006      C1016   1.257       .  A
O1007      C1016   1.275       .  A
O1008      C1015   1.276       .  A
O1008      V2148   1.951   1_455  S
O1009      C1014   1.278       .  A
O1009      V1864   1.955   1_455  S
O1010      C1013   1.276       .  A
O1010      V1012   1.951       .  S
V1011      O1856   1.850       .  S
V1011      O2141   1.851       .  S
V1011      V1012   2.046       .  T
V1012      O2144   1.951       .  S
V1012      O1861   1.955   1_556  S
C1017      C1018   1.404       .  A
C1017      C1022   1.398       .  A
C1017      H1024   1.083       .  S
C1018      C1019   1.405       .  A
C1019      C1020   1.397       .  A
C1019      F1026   1.357       .  S
C1020      C1021   1.402       .  A
C1020      H1025   1.084       .  S
C1021      C1022   1.402       .  A
C1022      F1023   1.353       .  S
C1027      C1028   1.402       .  A
C1027      C1032   1.398       .  A
C1027      H1034   1.083       .  S
C1028      C1029   1.403       .  A
C1029      C1030   1.397       .  A
C1029      F1036   1.357       .  S
C1030      C1031   1.401       .  A
C1030      H1035   1.084       .  S
C1031      C1032   1.402       .  A
C1032      F1033   1.357       .  S
C1037      C1038   1.406       .  A
C1037      C1042   1.401       .  A
C1037      H1044   1.083       .  S
C1038      C1039   1.402       .  A
C1039      C1040   1.387       .  A
C1039      F1046   1.352       .  S
C1040      C1041   1.397       .  A
C1040      H1045   1.077       .  S
C1041      C1042   1.408       .  A
C1042      F1043   1.357       .  S
C1047      C1048   1.404       .  A
C1047      C1052   1.398       .  A
C1047      H1054   1.083       .  S
C1048      C1049   1.406       .  A
C1049      C1050   1.395       .  A
C1049      F1056   1.355       .  S
C1050      C1051   1.401       .  A
C1050      H1055   1.084       .  S
C1051      C1052   1.405       .  A
C1052      F1053   1.357       .  S
C1057      C1058   1.400       .  A
C1057      C1062   1.396       .  A
C1057      H1064   1.079       .  S
C1058      C1059   1.405       .  A
C1059      C1060   1.400       .  A
C1059      F1066   1.356       .  S
C1060      C1061   1.403       .  A
C1060      H1065   1.083       .  S
C1061      C1062   1.402       .  A
C1062      F1063   1.357       .  S
C1067      C1068   1.403       .  A
C1067      C1072   1.399       .  A
C1067      H1074   1.083       .  S
C1068      C1069   1.401       .  A
C1069      C1070   1.397       .  A
C1069      F1076   1.357       .  S
C1070      C1071   1.401       .  A
C1070      H1075   1.081       .  S
C1071      C1072   1.403       .  A
C1072      F1073   1.357       .  S
C1077      C1078   1.401       .  A
C1077      C1082   1.395       .  A
C1077      H1084   1.077       .  S
C1078      C1079   1.405       .  A
C1079      C1080   1.401       .  A
C1079      F1086   1.357       .  S
C1080      C1081   1.404       .  A
C1080      H1085   1.083       .  S
C1081      C1082   1.400       .  A
C1082      F1083   1.358       .  S
C1087      C1088   1.405       .  A
C1087      C1092   1.399       .  A
C1087      H1094   1.082       .  S
C1088      C1089   1.405       .  A
C1089      C1090   1.393       .  A
C1089      F1096   1.354       .  S
C1090      C1091   1.400       .  A
C1090      H1095   1.083       .  S
C1091      C1092   1.407       .  A
C1092      F1093   1.357       .  S
C1097      C1098   1.403       .  A
C1097      C1102   1.398       .  A
C1097      H1104   1.084       .  S
C1098      C1099   1.405       .  A
C1099      C1100   1.400       .  A
C1099      F1106   1.356       .  S
C1100      C1101   1.401       .  A
C1100      H1105   1.084       .  S
C1101      C1102   1.401       .  A
C1102      F1103   1.354       .  S
C1107      C1108   1.402       .  A
C1107      C1112   1.398       .  A
C1107      H1114   1.083       .  S
C1108      C1109   1.405       .  A
C1109      C1110   1.396       .  A
C1109      F1116   1.357       .  S
C1110      C1111   1.402       .  A
C1110      H1115   1.082       .  S
C1111      C1112   1.406       .  A
C1112      F1113   1.355       .  S
C1117      C1118   1.405       .  A
C1117      C1122   1.399       .  A
C1117      H1124   1.083       .  S
C1118      C1119   1.402       .  A
C1119      C1120   1.393       .  A
C1119      F1126   1.355       .  S
C1120      C1121   1.400       .  A
C1120      H1125   1.075       .  S
C1121      C1122   1.407       .  A
C1122      F1123   1.358       .  S
C1127      C1128   1.402       .  A
C1127      C1132   1.400       .  A
C1127      H1134   1.083       .  S
C1128      C1129   1.403       .  A
C1129      C1130   1.397       .  A
C1129      F1136   1.357       .  S
C1130      C1131   1.400       .  A
C1130      H1135   1.083       .  S
C1131      C1132   1.405       .  A
C1132      F1133   1.357       .  S
C1137      H1138   1.102       .  S
C1137      C1143   1.526       .  S
C1137      C1142   1.531       .  S
C1137      C1141   1.529       .  S
C1139      H1140   1.111       .  S
C1139      C1145   1.557       .  S
C1139      C1144   1.561       .  S
C1139      C1146   1.560       .  S
C1141      C1144   1.371       .  D
C1141      C1286   1.497       .  S
C1142      C1145   1.371       .  D
C1142      C1242   1.500       .  S
C1143      C1146   1.364       .  D
C1143      C1297   1.486       .  S
C1144      C1402   1.478       .  S
C1145      C1392   1.477       .  S
C1146      C1415   1.472       .  S
C1147      H1148   1.101       .  S
C1147      C1153   1.532       .  S
C1147      C1152   1.529       .  S
C1147      C1151   1.528       .  S
C1149      H1150   1.111       .  S
C1149      C1155   1.558       .  S
C1149      C1154   1.561       .  S
C1149      C1156   1.562       .  S
C1151      C1154   1.371       .  D
C1151      C1283   1.496       .  S
C1152      C1155   1.363       .  D
C1152      C1272   1.494       .  S
C1153      C1156   1.374       .  D
C1153      C1243   1.500       .  S
C1154      C1385   1.475       .  S
C1155      C1412   1.474       .  S
C1156      C1372   1.481       .  S
C1157      H1158   1.102       .  S
C1157      C1163   1.527       .  S
C1157      C1162   1.525       .  S
C1157      C1161   1.534       .  S
C1159      H1160   1.111       .  S
C1159      C1165   1.561       .  S
C1159      C1164   1.558       .  S
C1159      C1166   1.563       .  S
C1161      C1164   1.369       .  D
C1161      C1255   1.499       .  S
C1162      C1165   1.366       .  D
C1162      C1241   1.489       .  S
C1163      C1166   1.368       .  D
C1163      C1270   1.496       .  S
C1164      C1382   1.478       .  S
C1165      C1352   1.471       .  S
C1166      C1365   1.473       .  S
C1167      H1168   1.101       .  S
C1167      C1173   1.528       .  S
C1167      C1172   1.528       .  S
C1167      C1171   1.530       .  S
C1169      H1170   1.111       .  S
C1169      C1175   1.560       .  S
C1169      C1174   1.562       .  S
C1169      C1176   1.560       .  S
C1171      C1174   1.373       .  D
C1171      C1258   1.499       .  S
C1172      C1175   1.365       .  D
C1172      C1299   1.490       .  S
C1173      C1176   1.367       .  D
C1173      C1244   1.492       .  S
C1174      C1405   1.480       .  S
C1175      C1362   1.478       .  S
C1176      C1345   1.473       .  S
C1177      H1178   1.100       .  S
C1177      C1183   1.531       .  S
C1177      C1182   1.527       .  S
C1177      C1181   1.526       .  S
C1179      H1180   1.111       .  S
C1179      C1185   1.559       .  S
C1179      C1184   1.560       .  S
C1179      C1186   1.559       .  S
C1181      C1184   1.371       .  D
C1181      C1256   1.491       .  S
C1182      C1185   1.364       .  D
C1182      C1230   1.490       .  S
C1183      C1186   1.369       .  D
C1183      C1298   1.498       .  S
C1184      C1335   1.475       .  S
C1185      C1342   1.476       .  S
C1186      C1325   1.478       .  S
C1187      H1188   1.102       .  S
C1187      C1193   1.531       .  S
C1187      C1192   1.526       .  S
C1187      C1191   1.527       .  S
C1189      H1190   1.111       .  S
C1189      C1195   1.563       .  S
C1189      C1194   1.556       .  S
C1189      C1196   1.560       .  S
C1191      C1194   1.363       .  D
C1191      C1300   1.489       .  S
C1192      C1195   1.374       .  D
C1192      C1228   1.494       .  S
C1193      C1196   1.372       .  D
C1193      C1284   1.503       .  S
C1194      C1312   1.472       .  S
C1195      C1395   1.480       .  S
C1196      C1332   1.479       .  S
C1197      H1198   1.102       .  S
C1197      C1203   1.528       .  S
C1197      C1202   1.527       .  S
C1197      C1201   1.530       .  S
C1199      H1200   1.110       .  S
C1199      C1205   1.565       .  S
C1199      C1204   1.559       .  S
C1199      C1206   1.557       .  S
C1201      C1204   1.370       .  D
C1201      C1257   1.495       .  S
C1202      C1205   1.374       .  D
C1202      C1271   1.492       .  S
C1203      C1206   1.362       .  D
C1203      C1227   1.495       .  S
C1204      C1302   1.479       .  S
C1205      C1322   1.480       .  S
C1206      C1355   1.474       .  S
C1207      H1208   1.102       .  S
C1207      C1213   1.525       .  S
C1207      C1212   1.531       .  S
C1207      C1211   1.532       .  S
C1209      H1210   1.111       .  S
C1209      C1215   1.559       .  S
C1209      C1214   1.556       .  S
C1209      C1216   1.556       .  S
C1211      C1214   1.372       .  D
C1211      C1285   1.494       .  S
C1212      C1215   1.372       .  D
C1212      C1229   1.494       .  S
C1213      C1216   1.363       .  D
C1213      C1269   1.492       .  S
C1214      C1305   1.477       .  S
C1215      C1375   1.478       .  S
C1216      C1315   1.468       .  S
O1217      C1227   1.257       .  A
O1218      C1228   1.256       .  A
O1218      V1225   1.851       .  S
O1219      C1229   1.255   1_565  A
O1219      V1793   1.849       .  S
O1220      C1230   1.254       .  A
O1221      C1230   1.276       .  A
O1222      C1229   1.278       .  A
O1222      V1794   1.955   1_545  S
O1223      C1228   1.275       .  A
O1223      V1226   1.951       .  S
O1224      C1227   1.277       .  A
V1225      O1787   1.849       .  S
V1225      V1226   2.044       .  T
V1226      O1790   1.955       .  S
O1231      C1241   1.275       .  A
O1232      C1242   1.277       .  A
O1232      V1239   1.954       .  S
O1233      C1243   1.278       .  A
O1233      V1807   1.959   1_545  S
O1234      C1244   1.277       .  A
O1235      C1244   1.255       .  A
O1236      C1243   1.255   1_565  A
O1236      V1808   1.850       .  S
O1237      C1242   1.256       .  A
O1237      V1240   1.854       .  S
O1238      C1241   1.256       .  A
V1239      O1801   1.959       .  S
V1239      V1240   2.043       .  T
V1240      O1804   1.850       .  S
O1245      C1255   1.255   1_565  A
O1245      V1821   1.851       .  S
O1246      C1256   1.255       .  A
O1246      V1537   1.847   1_554  S
O1247      C1257   1.256   1_556  A
O1247      V2105   1.850   1_545  S
O1248      C1258   1.256       .  A
O1248      V1253   1.853       .  S
O1249      C1258   1.277       .  A
O1249      V1254   1.954       .  S
O1250      C1257   1.277       .  A
O1250      V2106   1.956   1_544  S
O1251      C1256   1.277       .  A
O1251      V1538   1.954   1_554  S
O1252      C1255   1.279       .  A
O1252      V1822   1.960   1_545  S
V1253      O1813   1.851       .  S
V1253      O1530   1.847       .  S
V1253      O2099   1.850       .  S
V1253      V1254   2.038       .  T
V1254      O2102   1.956       .  S
V1254      O1535   1.954       .  S
V1254      O1820   1.960       .  S
O1259      C1269   1.256       .  A
O1259      V1551   1.854   1_554  S
O1260      C1270   1.256       .  A
O1261      C1271   1.255   1_556  A
O1262      C1272   1.255       .  A
O1262      V1267   1.851       .  S
O1263      C1272   1.277       .  A
O1263      V1268   1.954       .  S
O1264      C1271   1.276       .  A
O1265      C1270   1.277       .  A
O1266      C1269   1.277       .  A
O1266      V1552   1.953   1_554  S
V1267      O1543   1.854       .  S
V1267      V1268   2.046       .  T
V1268      O1550   1.953       .  S
O1273      C1283   1.278       .  A
O1273      V1849   1.958   1_545  S
O1274      C1284   1.279       .  A
O1274      V1565   1.961   1_554  S
O1275      C1285   1.278       .  A
O1275      V2133   1.957   1_544  S
O1276      C1286   1.277       .  A
O1276      V1281   1.954       .  S
O1277      C1286   1.256       .  A
O1277      V1282   1.851       .  S
O1278      C1285   1.255   1_556  A
O1278      V2134   1.850   1_545  S
O1279      C1284   1.257       .  A
O1279      V1566   1.856   1_554  S
O1280      C1283   1.256   1_565  A
O1280      V1850   1.851       .  S
V1281      O1841   1.958       .  S
V1281      O1558   1.961       .  S
V1281      O2127   1.957       .  S
V1281      V1282   2.037       .  T
V1282      O2130   1.850       .  S
V1282      O1563   1.856       .  S
V1282      O1848   1.851       .  S
O1287      C1297   1.254       .  A
O1287      V1295   1.846       .  S
O1288      C1298   1.255   1_556  A
O1289      C1299   1.256       .  A
O1290      C1300   1.257       .  A
O1290      V1579   1.851   1_554  S
O1291      C1300   1.275       .  A
O1291      V1580   1.949   1_554  S
O1292      C1299   1.276       .  A
O1293      C1298   1.278       .  A
O1294      C1297   1.276       .  A
O1294      V1296   1.951       .  S
V1295      O1574   1.851       .  S
V1295      V1296   2.046       .  T
V1296      O1575   1.949       .  S
C1301      C1302   1.404       .  A
C1301      C1306   1.398       .  A
C1301      H1308   1.083       .  S
C1302      C1303   1.405       .  A
C1303      C1304   1.397       .  A
C1303      F1310   1.357       .  S
C1304      C1305   1.402       .  A
C1304      H1309   1.084       .  S
C1305      C1306   1.402       .  A
C1306      F1307   1.353       .  S
C1311      C1312   1.402       .  A
C1311      C1316   1.398       .  A
C1311      H1318   1.083       .  S
C1312      C1313   1.403       .  A
C1313      C1314   1.397       .  A
C1313      F1320   1.357       .  S
C1314      C1315   1.401       .  A
C1314      H1319   1.084       .  S
C1315      C1316   1.402       .  A
C1316      F1317   1.357       .  S
C1321      C1322   1.406       .  A
C1321      C1326   1.401       .  A
C1321      H1328   1.083       .  S
C1322      C1323   1.402       .  A
C1323      C1324   1.387       .  A
C1323      F1330   1.352       .  S
C1324      C1325   1.397       .  A
C1324      H1329   1.077       .  S
C1325      C1326   1.408       .  A
C1326      F1327   1.357       .  S
C1331      C1332   1.404       .  A
C1331      C1336   1.398       .  A
C1331      H1338   1.083       .  S
C1332      C1333   1.406       .  A
C1333      C1334   1.395       .  A
C1333      F1340   1.355       .  S
C1334      C1335   1.401       .  A
C1334      H1339   1.084       .  S
C1335      C1336   1.405       .  A
C1336      F1337   1.357       .  S
C1341      C1342   1.400       .  A
C1341      C1346   1.396       .  A
C1341      H1348   1.079       .  S
C1342      C1343   1.405       .  A
C1343      C1344   1.400       .  A
C1343      F1350   1.356       .  S
C1344      C1345   1.403       .  A
C1344      H1349   1.083       .  S
C1345      C1346   1.402       .  A
C1346      F1347   1.357       .  S
C1351      C1352   1.403       .  A
C1351      C1356   1.399       .  A
C1351      H1358   1.083       .  S
C1352      C1353   1.401       .  A
C1353      C1354   1.397       .  A
C1353      F1360   1.357       .  S
C1354      C1355   1.401       .  A
C1354      H1359   1.081       .  S
C1355      C1356   1.403       .  A
C1356      F1357   1.357       .  S
C1361      C1362   1.401       .  A
C1361      C1366   1.395       .  A
C1361      H1368   1.077       .  S
C1362      C1363   1.405       .  A
C1363      C1364   1.401       .  A
C1363      F1370   1.357       .  S
C1364      C1365   1.404       .  A
C1364      H1369   1.083       .  S
C1365      C1366   1.400       .  A
C1366      F1367   1.358       .  S
C1371      C1372   1.405       .  A
C1371      C1376   1.399       .  A
C1371      H1378   1.082       .  S
C1372      C1373   1.405       .  A
C1373      C1374   1.393       .  A
C1373      F1380   1.354       .  S
C1374      C1375   1.400       .  A
C1374      H1379   1.083       .  S
C1375      C1376   1.407       .  A
C1376      F1377   1.357       .  S
C1381      C1382   1.403       .  A
C1381      C1386   1.398       .  A
C1381      H1388   1.084       .  S
C1382      C1383   1.405       .  A
C1383      C1384   1.400       .  A
C1383      F1390   1.356       .  S
C1384      C1385   1.401       .  A
C1384      H1389   1.084       .  S
C1385      C1386   1.401       .  A
C1386      F1387   1.354       .  S
C1391      C1392   1.402       .  A
C1391      C1396   1.398       .  A
C1391      H1398   1.083       .  S
C1392      C1393   1.405       .  A
C1393      C1394   1.396       .  A
C1393      F1400   1.357       .  S
C1394      C1395   1.402       .  A
C1394      H1399   1.082       .  S
C1395      C1396   1.406       .  A
C1396      F1397   1.355       .  S
C1401      C1402   1.405       .  A
C1401      C1406   1.399       .  A
C1401      H1408   1.083       .  S
C1402      C1403   1.402       .  A
C1403      C1404   1.393       .  A
C1403      F1410   1.355       .  S
C1404      C1405   1.400       .  A
C1404      H1409   1.075       .  S
C1405      C1406   1.407       .  A
C1406      F1407   1.358       .  S
C1411      C1412   1.402       .  A
C1411      C1416   1.400       .  A
C1411      H1418   1.083       .  S
C1412      C1413   1.403       .  A
C1413      C1414   1.397       .  A
C1413      F1420   1.357       .  S
C1414      C1415   1.400       .  A
C1414      H1419   1.083       .  S
C1415      C1416   1.405       .  A
C1416      F1417   1.357       .  S
C1421      H1422   1.102       .  S
C1421      C1427   1.526       .  S
C1421      C1426   1.531       .  S
C1421      C1425   1.529       .  S
C1423      H1424   1.111       .  S
C1423      C1429   1.557       .  S
C1423      C1428   1.561       .  S
C1423      C1430   1.560       .  S
C1425      C1428   1.371       .  D
C1425      C1570   1.497       .  S
C1426      C1429   1.371       .  D
C1426      C1526   1.500       .  S
C1427      C1430   1.364       .  D
C1427      C1581   1.486       .  S
C1428      C1686   1.478       .  S
C1429      C1676   1.477       .  S
C1430      C1699   1.472       .  S
C1431      H1432   1.101       .  S
C1431      C1437   1.532       .  S
C1431      C1436   1.529       .  S
C1431      C1435   1.528       .  S
C1433      H1434   1.111       .  S
C1433      C1439   1.558       .  S
C1433      C1438   1.561       .  S
C1433      C1440   1.562       .  S
C1435      C1438   1.371       .  D
C1435      C1567   1.496       .  S
C1436      C1439   1.363       .  D
C1436      C1556   1.494       .  S
C1437      C1440   1.374       .  D
C1437      C1527   1.500       .  S
C1438      C1669   1.475       .  S
C1439      C1696   1.474       .  S
C1440      C1656   1.481       .  S
C1441      H1442   1.102       .  S
C1441      C1447   1.527       .  S
C1441      C1446   1.525       .  S
C1441      C1445   1.534       .  S
C1443      H1444   1.111       .  S
C1443      C1449   1.561       .  S
C1443      C1448   1.558       .  S
C1443      C1450   1.563       .  S
C1445      C1448   1.369       .  D
C1445      C1539   1.499       .  S
C1446      C1449   1.366       .  D
C1446      C1525   1.489       .  S
C1447      C1450   1.368       .  D
C1447      C1554   1.496       .  S
C1448      C1666   1.478       .  S
C1449      C1636   1.471       .  S
C1450      C1649   1.473       .  S
C1451      H1452   1.101       .  S
C1451      C1457   1.528       .  S
C1451      C1456   1.528       .  S
C1451      C1455   1.530       .  S
C1453      H1454   1.111       .  S
C1453      C1459   1.560       .  S
C1453      C1458   1.562       .  S
C1453      C1460   1.560       .  S
C1455      C1458   1.373       .  D
C1455      C1542   1.499       .  S
C1456      C1459   1.365       .  D
C1456      C1583   1.490       .  S
C1457      C1460   1.367       .  D
C1457      C1528   1.492       .  S
C1458      C1689   1.480       .  S
C1459      C1646   1.478       .  S
C1460      C1629   1.473       .  S
C1461      H1462   1.100       .  S
C1461      C1467   1.531       .  S
C1461      C1466   1.527       .  S
C1461      C1465   1.526       .  S
C1463      H1464   1.111       .  S
C1463      C1469   1.559       .  S
C1463      C1468   1.560       .  S
C1463      C1470   1.559       .  S
C1465      C1468   1.371       .  D
C1465      C1540   1.491       .  S
C1466      C1469   1.364       .  D
C1466      C1514   1.490       .  S
C1467      C1470   1.369       .  D
C1467      C1582   1.498       .  S
C1468      C1619   1.475       .  S
C1469      C1626   1.476       .  S
C1470      C1609   1.478       .  S
C1471      H1472   1.102       .  S
C1471      C1477   1.531       .  S
C1471      C1476   1.526       .  S
C1471      C1475   1.527       .  S
C1473      H1474   1.111       .  S
C1473      C1479   1.563       .  S
C1473      C1478   1.556       .  S
C1473      C1480   1.560       .  S
C1475      C1478   1.363       .  D
C1475      C1584   1.489       .  S
C1476      C1479   1.374       .  D
C1476      C1512   1.494       .  S
C1477      C1480   1.372       .  D
C1477      C1568   1.503       .  S
C1478      C1596   1.472       .  S
C1479      C1679   1.480       .  S
C1480      C1616   1.479       .  S
C1481      H1482   1.102       .  S
C1481      C1487   1.528       .  S
C1481      C1486   1.527       .  S
C1481      C1485   1.530       .  S
C1483      H1484   1.110       .  S
C1483      C1489   1.565       .  S
C1483      C1488   1.559       .  S
C1483      C1490   1.557       .  S
C1485      C1488   1.370       .  D
C1485      C1541   1.495       .  S
C1486      C1489   1.374       .  D
C1486      C1555   1.492       .  S
C1487      C1490   1.362       .  D
C1487      C1511   1.495       .  S
C1488      C1586   1.479       .  S
C1489      C1606   1.480       .  S
C1490      C1639   1.474       .  S
C1491      H1492   1.102       .  S
C1491      C1497   1.525       .  S
C1491      C1496   1.531       .  S
C1491      C1495   1.532       .  S
C1493      H1494   1.111       .  S
C1493      C1499   1.559       .  S
C1493      C1498   1.556       .  S
C1493      C1500   1.556       .  S
C1495      C1498   1.372       .  D
C1495      C1569   1.494       .  S
C1496      C1499   1.372       .  D
C1496      C1513   1.494       .  S
C1497      C1500   1.363       .  D
C1497      C1553   1.492       .  S
C1498      C1589   1.477       .  S
C1499      C1659   1.478       .  S
C1500      C1599   1.468       .  S
O1501      C1511   1.257       .  A
O1502      C1512   1.256       .  A
O1502      V1509   1.851       .  S
O1503      C1513   1.255   1_565  A
O1503      V2077   1.849       .  S
O1504      C1514   1.254       .  A
O1505      C1514   1.276       .  A
O1506      C1513   1.278       .  A
O1506      V2078   1.955   1_545  S
O1507      C1512   1.275       .  A
O1507      V1510   1.951       .  S
O1508      C1511   1.277       .  A
V1509      O2071   1.849       .  S
V1509      V1510   2.044       .  T
V1510      O2074   1.955       .  S
O1515      C1525   1.275       .  A
O1516      C1526   1.277       .  A
O1516      V1523   1.954       .  S
O1517      C1527   1.278       .  A
O1517      V2091   1.959   1_545  S
O1518      C1528   1.277       .  A
O1519      C1528   1.255       .  A
O1520      C1527   1.255   1_565  A
O1520      V2092   1.850       .  S
O1521      C1526   1.256       .  A
O1521      V1524   1.854       .  S
O1522      C1525   1.256       .  A
V1523      O2085   1.959       .  S
V1523      V1524   2.043       .  T
V1524      O2088   1.850       .  S
O1529      C1539   1.255   1_565  A
O1529      V2105   1.851       .  S
O1530      C1540   1.255       .  A
O1531      C1541   1.256       .  A
O1531      V1821   1.850   1_545  S
O1532      C1542   1.256       .  A
O1532      V1537   1.853       .  S
O1533      C1542   1.277       .  A
O1533      V1538   1.954       .  S
O1534      C1541   1.277       .  A
O1534      V1822   1.956   1_545  S
O1535      C1540   1.277       .  A
O1536      C1539   1.279       .  A
O1536      V2106   1.960   1_545  S
V1537      O2097   1.851       .  S
V1537      O1815   1.850       .  S
V1537      V1538   2.038       .  T
V1538      O1818   1.956   1_556  S
V1538      O2104   1.960       .  S
O1543      C1553   1.256       .  A
O1544      C1554   1.256       .  A
O1545      C1555   1.255       .  A
O1546      C1556   1.255       .  A
O1546      V1551   1.851       .  S
O1547      C1556   1.277       .  A
O1547      V1552   1.954       .  S
O1548      C1555   1.276       .  A
O1549      C1554   1.277       .  A
O1550      C1553   1.277       .  A
V1551      V1552   2.046       .  T
O1557      C1567   1.278       .  A
O1557      V2133   1.958   1_545  S
O1558      C1568   1.279       .  A
O1559      C1569   1.278       .  A
O1559      V1849   1.957   1_545  S
O1560      C1570   1.277       .  A
O1560      V1565   1.954       .  S
O1561      C1570   1.256       .  A
O1561      V1566   1.851       .  S
O1562      C1569   1.255       .  A
O1562      V1850   1.850   1_545  S
O1563      C1568   1.257       .  A
O1564      C1567   1.256   1_565  A
O1564      V2134   1.851       .  S
V1565      O2125   1.958       .  S
V1565      O1843   1.957   1_556  S
V1565      V1566   2.037       .  T
V1566      O1846   1.850       .  S
V1566      O2132   1.851       .  S
O1571      C1581   1.254       .  A
O1571      V1579   1.846       .  S
O1572      C1582   1.255       .  A
O1573      C1583   1.256       .  A
O1574      C1584   1.257       .  A
O1575      C1584   1.275       .  A
O1576      C1583   1.276       .  A
O1577      C1582   1.278       .  A
O1578      C1581   1.276       .  A
O1578      V1580   1.951       .  S
V1579      V1580   2.046       .  T
C1585      C1586   1.404       .  A
C1585      C1590   1.398       .  A
C1585      H1592   1.083       .  S
C1586      C1587   1.405       .  A
C1587      C1588   1.397       .  A
C1587      F1594   1.357       .  S
C1588      C1589   1.402       .  A
C1588      H1593   1.084       .  S
C1589      C1590   1.402       .  A
C1590      F1591   1.353       .  S
C1595      C1596   1.402       .  A
C1595      C1600   1.398       .  A
C1595      H1602   1.083       .  S
C1596      C1597   1.403       .  A
C1597      C1598   1.397       .  A
C1597      F1604   1.357       .  S
C1598      C1599   1.401       .  A
C1598      H1603   1.084       .  S
C1599      C1600   1.402       .  A
C1600      F1601   1.357       .  S
C1605      C1606   1.406       .  A
C1605      C1610   1.401       .  A
C1605      H1612   1.083       .  S
C1606      C1607   1.402       .  A
C1607      C1608   1.387       .  A
C1607      F1614   1.352       .  S
C1608      C1609   1.397       .  A
C1608      H1613   1.077       .  S
C1609      C1610   1.408       .  A
C1610      F1611   1.357       .  S
C1615      C1616   1.404       .  A
C1615      C1620   1.398       .  A
C1615      H1622   1.083       .  S
C1616      C1617   1.406       .  A
C1617      C1618   1.395       .  A
C1617      F1624   1.355       .  S
C1618      C1619   1.401       .  A
C1618      H1623   1.084       .  S
C1619      C1620   1.405       .  A
C1620      F1621   1.357       .  S
C1625      C1626   1.400       .  A
C1625      C1630   1.396       .  A
C1625      H1632   1.079       .  S
C1626      C1627   1.405       .  A
C1627      C1628   1.400       .  A
C1627      F1634   1.356       .  S
C1628      C1629   1.403       .  A
C1628      H1633   1.083       .  S
C1629      C1630   1.402       .  A
C1630      F1631   1.357       .  S
C1635      C1636   1.403       .  A
C1635      C1640   1.399       .  A
C1635      H1642   1.083       .  S
C1636      C1637   1.401       .  A
C1637      C1638   1.397       .  A
C1637      F1644   1.357       .  S
C1638      C1639   1.401       .  A
C1638      H1643   1.081       .  S
C1639      C1640   1.403       .  A
C1640      F1641   1.357       .  S
C1645      C1646   1.401       .  A
C1645      C1650   1.395       .  A
C1645      H1652   1.077       .  S
C1646      C1647   1.405       .  A
C1647      C1648   1.401       .  A
C1647      F1654   1.357       .  S
C1648      C1649   1.404       .  A
C1648      H1653   1.083       .  S
C1649      C1650   1.400       .  A
C1650      F1651   1.358       .  S
C1655      C1656   1.405       .  A
C1655      C1660   1.399       .  A
C1655      H1662   1.082       .  S
C1656      C1657   1.405       .  A
C1657      C1658   1.393       .  A
C1657      F1664   1.354       .  S
C1658      C1659   1.400       .  A
C1658      H1663   1.083       .  S
C1659      C1660   1.407       .  A
C1660      F1661   1.357       .  S
C1665      C1666   1.403       .  A
C1665      C1670   1.398       .  A
C1665      H1672   1.084       .  S
C1666      C1667   1.405       .  A
C1667      C1668   1.400       .  A
C1667      F1674   1.356       .  S
C1668      C1669   1.401       .  A
C1668      H1673   1.084       .  S
C1669      C1670   1.401       .  A
C1670      F1671   1.354       .  S
C1675      C1676   1.402       .  A
C1675      C1680   1.398       .  A
C1675      H1682   1.083       .  S
C1676      C1677   1.405       .  A
C1677      C1678   1.396       .  A
C1677      F1684   1.357       .  S
C1678      C1679   1.402       .  A
C1678      H1683   1.082       .  S
C1679      C1680   1.406       .  A
C1680      F1681   1.355       .  S
C1685      C1686   1.405       .  A
C1685      C1690   1.399       .  A
C1685      H1692   1.083       .  S
C1686      C1687   1.402       .  A
C1687      C1688   1.393       .  A
C1687      F1694   1.355       .  S
C1688      C1689   1.400       .  A
C1688      H1693   1.075       .  S
C1689      C1690   1.407       .  A
C1690      F1691   1.358       .  S
C1695      C1696   1.402       .  A
C1695      C1700   1.400       .  A
C1695      H1702   1.083       .  S
C1696      C1697   1.403       .  A
C1697      C1698   1.397       .  A
C1697      F1704   1.357       .  S
C1698      C1699   1.400       .  A
C1698      H1703   1.083       .  S
C1699      C1700   1.405       .  A
C1700      F1701   1.357       .  S
C1705      H1706   1.102       .  S
C1705      C1711   1.526       .  S
C1705      C1710   1.531       .  S
C1705      C1709   1.529       .  S
C1707      H1708   1.111       .  S
C1707      C1713   1.557       .  S
C1707      C1712   1.561       .  S
C1707      C1714   1.560       .  S
C1709      C1712   1.371       .  D
C1709      C1854   1.497       .  S
C1710      C1713   1.371       .  D
C1710      C1810   1.500       .  S
C1711      C1714   1.364       .  D
C1711      C1865   1.486       .  S
C1712      C1970   1.478       .  S
C1713      C1960   1.477       .  S
C1714      C1983   1.472       .  S
C1715      H1716   1.101       .  S
C1715      C1721   1.532       .  S
C1715      C1720   1.529       .  S
C1715      C1719   1.528       .  S
C1717      H1718   1.111       .  S
C1717      C1723   1.558       .  S
C1717      C1722   1.561       .  S
C1717      C1724   1.562       .  S
C1719      C1722   1.371       .  D
C1719      C1851   1.496       .  S
C1720      C1723   1.363       .  D
C1720      C1840   1.494       .  S
C1721      C1724   1.374       .  D
C1721      C1811   1.500       .  S
C1722      C1953   1.475       .  S
C1723      C1980   1.474       .  S
C1724      C1940   1.481       .  S
C1725      H1726   1.102       .  S
C1725      C1731   1.527       .  S
C1725      C1730   1.525       .  S
C1725      C1729   1.534       .  S
C1727      H1728   1.111       .  S
C1727      C1733   1.561       .  S
C1727      C1732   1.558       .  S
C1727      C1734   1.563       .  S
C1729      C1732   1.369       .  D
C1729      C1823   1.499       .  S
C1730      C1733   1.366       .  D
C1730      C1809   1.489       .  S
C1731      C1734   1.368       .  D
C1731      C1838   1.496       .  S
C1732      C1950   1.478       .  S
C1733      C1920   1.471       .  S
C1734      C1933   1.473       .  S
C1735      H1736   1.101       .  S
C1735      C1741   1.528       .  S
C1735      C1740   1.528       .  S
C1735      C1739   1.530       .  S
C1737      H1738   1.111       .  S
C1737      C1743   1.560       .  S
C1737      C1742   1.562       .  S
C1737      C1744   1.560       .  S
C1739      C1742   1.373       .  D
C1739      C1826   1.499       .  S
C1740      C1743   1.365       .  D
C1740      C1867   1.490       .  S
C1741      C1744   1.367       .  D
C1741      C1812   1.492       .  S
C1742      C1973   1.480       .  S
C1743      C1930   1.478       .  S
C1744      C1913   1.473       .  S
C1745      H1746   1.100       .  S
C1745      C1751   1.531       .  S
C1745      C1750   1.527       .  S
C1745      C1749   1.526       .  S
C1747      H1748   1.111       .  S
C1747      C1753   1.559       .  S
C1747      C1752   1.560       .  S
C1747      C1754   1.559       .  S
C1749      C1752   1.371       .  D
C1749      C1824   1.491       .  S
C1750      C1753   1.364       .  D
C1750      C1798   1.490       .  S
C1751      C1754   1.369       .  D
C1751      C1866   1.498       .  S
C1752      C1903   1.475       .  S
C1753      C1910   1.476       .  S
C1754      C1893   1.478       .  S
C1755      H1756   1.102       .  S
C1755      C1761   1.531       .  S
C1755      C1760   1.526       .  S
C1755      C1759   1.527       .  S
C1757      H1758   1.111       .  S
C1757      C1763   1.563       .  S
C1757      C1762   1.556       .  S
C1757      C1764   1.560       .  S
C1759      C1762   1.363       .  D
C1759      C1868   1.489       .  S
C1760      C1763   1.374       .  D
C1760      C1796   1.494       .  S
C1761      C1764   1.372       .  D
C1761      C1852   1.503       .  S
C1762      C1880   1.472       .  S
C1763      C1963   1.480       .  S
C1764      C1900   1.479       .  S
C1765      H1766   1.102       .  S
C1765      C1771   1.528       .  S
C1765      C1770   1.527       .  S
C1765      C1769   1.530       .  S
C1767      H1768   1.110       .  S
C1767      C1773   1.565       .  S
C1767      C1772   1.559       .  S
C1767      C1774   1.557       .  S
C1769      C1772   1.370       .  D
C1769      C1825   1.495       .  S
C1770      C1773   1.374       .  D
C1770      C1839   1.492       .  S
C1771      C1774   1.362       .  D
C1771      C1795   1.495       .  S
C1772      C1870   1.479       .  S
C1773      C1890   1.480       .  S
C1774      C1923   1.474       .  S
C1775      H1776   1.102       .  S
C1775      C1781   1.525       .  S
C1775      C1780   1.531       .  S
C1775      C1779   1.532       .  S
C1777      H1778   1.111       .  S
C1777      C1783   1.559       .  S
C1777      C1782   1.556       .  S
C1777      C1784   1.556       .  S
C1779      C1782   1.372       .  D
C1779      C1853   1.494       .  S
C1780      C1783   1.372       .  D
C1780      C1797   1.494       .  S
C1781      C1784   1.363       .  D
C1781      C1837   1.492       .  S
C1782      C1873   1.477       .  S
C1783      C1943   1.478       .  S
C1784      C1883   1.468       .  S
O1785      C1795   1.257       .  A
O1786      C1796   1.256       .  A
O1786      V1793   1.851       .  S
O1787      C1797   1.255       .  A
O1788      C1798   1.254       .  A
O1789      C1798   1.276       .  A
O1790      C1797   1.278       .  A
O1791      C1796   1.275       .  A
O1791      V1794   1.951       .  S
O1792      C1795   1.277       .  A
V1793      V1794   2.044       .  T
O1799      C1809   1.275       .  A
O1800      C1810   1.277       .  A
O1800      V1807   1.954       .  S
O1801      C1811   1.278       .  A
O1802      C1812   1.277       .  A
O1803      C1812   1.255       .  A
O1804      C1811   1.255       .  A
O1805      C1810   1.256       .  A
O1805      V1808   1.854       .  S
O1806      C1809   1.256       .  A
V1807      V1808   2.043       .  T
O1813      C1823   1.255       .  A
O1814      C1824   1.255       .  A
O1814      V2105   1.847   1_554  S
O1815      C1825   1.256   1_556  A
O1816      C1826   1.256       .  A
O1816      V1821   1.853       .  S
O1817      C1826   1.277       .  A
O1817      V1822   1.954       .  S
O1818      C1825   1.277       .  A
O1819      C1824   1.277       .  A
O1819      V2106   1.954   1_554  S
O1820      C1823   1.279       .  A
V1821      O2098   1.847       .  S
V1821      V1822   2.038       .  T
V1822      O2103   1.954       .  S
O1827      C1837   1.256       .  A
O1827      V2119   1.854   1_554  S
O1828      C1838   1.256       .  A
O1829      C1839   1.255   1_556  A
O1830      C1840   1.255       .  A
O1830      V1835   1.851       .  S
O1831      C1840   1.277       .  A
O1831      V1836   1.954       .  S
O1832      C1839   1.276       .  A
O1833      C1838   1.277       .  A
O1834      C1837   1.277       .  A
O1834      V2120   1.953   1_554  S
V1835      O2111   1.854       .  S
V1835      V1836   2.046       .  T
V1836      O2118   1.953       .  S
O1841      C1851   1.278       .  A
O1842      C1852   1.279       .  A
O1842      V2133   1.961   1_554  S
O1843      C1853   1.278       .  A
O1844      C1854   1.277       .  A
O1844      V1849   1.954       .  S
O1845      C1854   1.256       .  A
O1845      V1850   1.851       .  S
O1846      C1853   1.255   1_556  A
O1847      C1852   1.257       .  A
O1847      V2134   1.856   1_554  S
O1848      C1851   1.256       .  A
V1849      O2126   1.961       .  S
V1849      V1850   2.037       .  T
V1850      O2131   1.856       .  S
O1855      C1865   1.254       .  A
O1855      V1863   1.846       .  S
O1856      C1866   1.255   1_556  A
O1857      C1867   1.256       .  A
O1858      C1868   1.257       .  A
O1858      V2147   1.851   1_554  S
O1859      C1868   1.275       .  A
O1859      V2148   1.949   1_554  S
O1860      C1867   1.276       .  A
O1861      C1866   1.278       .  A
O1862      C1865   1.276       .  A
O1862      V1864   1.951       .  S
V1863      O2142   1.851       .  S
V1863      V1864   2.046       .  T
V1864      O2143   1.949       .  S
C1869      C1870   1.404       .  A
C1869      C1874   1.398       .  A
C1869      H1876   1.083       .  S
C1870      C1871   1.405       .  A
C1871      C1872   1.397       .  A
C1871      F1878   1.357       .  S
C1872      C1873   1.402       .  A
C1872      H1877   1.084       .  S
C1873      C1874   1.402       .  A
C1874      F1875   1.353       .  S
C1879      C1880   1.402       .  A
C1879      C1884   1.398       .  A
C1879      H1886   1.083       .  S
C1880      C1881   1.403       .  A
C1881      C1882   1.397       .  A
C1881      F1888   1.357       .  S
C1882      C1883   1.401       .  A
C1882      H1887   1.084       .  S
C1883      C1884   1.402       .  A
C1884      F1885   1.357       .  S
C1889      C1890   1.406       .  A
C1889      C1894   1.401       .  A
C1889      H1896   1.083       .  S
C1890      C1891   1.402       .  A
C1891      C1892   1.387       .  A
C1891      F1898   1.352       .  S
C1892      C1893   1.397       .  A
C1892      H1897   1.077       .  S
C1893      C1894   1.408       .  A
C1894      F1895   1.357       .  S
C1899      C1900   1.404       .  A
C1899      C1904   1.398       .  A
C1899      H1906   1.083       .  S
C1900      C1901   1.406       .  A
C1901      C1902   1.395       .  A
C1901      F1908   1.355       .  S
C1902      C1903   1.401       .  A
C1902      H1907   1.084       .  S
C1903      C1904   1.405       .  A
C1904      F1905   1.357       .  S
C1909      C1910   1.400       .  A
C1909      C1914   1.396       .  A
C1909      H1916   1.079       .  S
C1910      C1911   1.405       .  A
C1911      C1912   1.400       .  A
C1911      F1918   1.356       .  S
C1912      C1913   1.403       .  A
C1912      H1917   1.083       .  S
C1913      C1914   1.402       .  A
C1914      F1915   1.357       .  S
C1919      C1920   1.403       .  A
C1919      C1924   1.399       .  A
C1919      H1926   1.083       .  S
C1920      C1921   1.401       .  A
C1921      C1922   1.397       .  A
C1921      F1928   1.357       .  S
C1922      C1923   1.401       .  A
C1922      H1927   1.081       .  S
C1923      C1924   1.403       .  A
C1924      F1925   1.357       .  S
C1929      C1930   1.401       .  A
C1929      C1934   1.395       .  A
C1929      H1936   1.077       .  S
C1930      C1931   1.405       .  A
C1931      C1932   1.401       .  A
C1931      F1938   1.357       .  S
C1932      C1933   1.404       .  A
C1932      H1937   1.083       .  S
C1933      C1934   1.400       .  A
C1934      F1935   1.358       .  S
C1939      C1940   1.405       .  A
C1939      C1944   1.399       .  A
C1939      H1946   1.082       .  S
C1940      C1941   1.405       .  A
C1941      C1942   1.393       .  A
C1941      F1948   1.354       .  S
C1942      C1943   1.400       .  A
C1942      H1947   1.083       .  S
C1943      C1944   1.407       .  A
C1944      F1945   1.357       .  S
C1949      C1950   1.403       .  A
C1949      C1954   1.398       .  A
C1949      H1956   1.084       .  S
C1950      C1951   1.406       .  A
C1951      C1952   1.400       .  A
C1951      F1958   1.356       .  S
C1952      C1953   1.401       .  A
C1952      H1957   1.084       .  S
C1953      C1954   1.401       .  A
C1954      F1955   1.354       .  S
C1959      C1960   1.402       .  A
C1959      C1964   1.398       .  A
C1959      H1966   1.083       .  S
C1960      C1961   1.405       .  A
C1961      C1962   1.396       .  A
C1961      F1968   1.357       .  S
C1962      C1963   1.402       .  A
C1962      H1967   1.082       .  S
C1963      C1964   1.406       .  A
C1964      F1965   1.355       .  S
C1969      C1970   1.405       .  A
C1969      C1974   1.399       .  A
C1969      H1976   1.083       .  S
C1970      C1971   1.402       .  A
C1971      C1972   1.393       .  A
C1971      F1978   1.355       .  S
C1972      C1973   1.400       .  A
C1972      H1977   1.075       .  S
C1973      C1974   1.407       .  A
C1974      F1975   1.358       .  S
C1979      C1980   1.402       .  A
C1979      C1984   1.400       .  A
C1979      H1986   1.083       .  S
C1980      C1981   1.403       .  A
C1981      C1982   1.397       .  A
C1981      F1988   1.357       .  S
C1982      C1983   1.400       .  A
C1982      H1987   1.083       .  S
C1983      C1984   1.405       .  A
C1984      F1985   1.357       .  S
C1989      H1990   1.102       .  S
C1989      C1995   1.526       .  S
C1989      C1994   1.531       .  S
C1989      C1993   1.529       .  S
C1991      H1992   1.111       .  S
C1991      C1997   1.557       .  S
C1991      C1996   1.561       .  S
C1991      C1998   1.560       .  S
C1993      C1996   1.371       .  D
C1993      C2138   1.497       .  S
C1994      C1997   1.371       .  D
C1994      C2094   1.500       .  S
C1995      C1998   1.364       .  D
C1995      C2149   1.486       .  S
C1996      C2254   1.478       .  S
C1997      C2244   1.477       .  S
C1998      C2267   1.472       .  S
C1999      H2000   1.101       .  S
C1999      C2005   1.532       .  S
C1999      C2004   1.529       .  S
C1999      C2003   1.528       .  S
C2001      H2002   1.111       .  S
C2001      C2007   1.558       .  S
C2001      C2006   1.561       .  S
C2001      C2008   1.562       .  S
C2003      C2006   1.371       .  D
C2003      C2135   1.496       .  S
C2004      C2007   1.363       .  D
C2004      C2124   1.494       .  S
C2005      C2008   1.374       .  D
C2005      C2095   1.500       .  S
C2006      C2237   1.475       .  S
C2007      C2264   1.474       .  S
C2008      C2224   1.481       .  S
C2009      H2010   1.102       .  S
C2009      C2015   1.527       .  S
C2009      C2014   1.525       .  S
C2009      C2013   1.534       .  S
C2011      H2012   1.111       .  S
C2011      C2017   1.561       .  S
C2011      C2016   1.558       .  S
C2011      C2018   1.563       .  S
C2013      C2016   1.369       .  D
C2013      C2107   1.499       .  S
C2014      C2017   1.366       .  D
C2014      C2093   1.489       .  S
C2015      C2018   1.368       .  D
C2015      C2122   1.496       .  S
C2016      C2234   1.478       .  S
C2017      C2204   1.471       .  S
C2018      C2217   1.473       .  S
C2019      H2020   1.101       .  S
C2019      C2025   1.528       .  S
C2019      C2024   1.528       .  S
C2019      C2023   1.530       .  S
C2021      H2022   1.111       .  S
C2021      C2027   1.560       .  S
C2021      C2026   1.562       .  S
C2021      C2028   1.560       .  S
C2023      C2026   1.373       .  D
C2023      C2110   1.499       .  S
C2024      C2027   1.365       .  D
C2024      C2151   1.490       .  S
C2025      C2028   1.367       .  D
C2025      C2096   1.492       .  S
C2026      C2257   1.480       .  S
C2027      C2214   1.478       .  S
C2028      C2197   1.473       .  S
C2029      H2030   1.100       .  S
C2029      C2035   1.531       .  S
C2029      C2034   1.527       .  S
C2029      C2033   1.526       .  S
C2031      H2032   1.111       .  S
C2031      C2037   1.559       .  S
C2031      C2036   1.560       .  S
C2031      C2038   1.559       .  S
C2033      C2036   1.371       .  D
C2033      C2108   1.491       .  S
C2034      C2037   1.364       .  D
C2034      C2082   1.490       .  S
C2035      C2038   1.369       .  D
C2035      C2150   1.498       .  S
C2036      C2187   1.475       .  S
C2037      C2194   1.476       .  S
C2038      C2177   1.478       .  S
C2039      H2040   1.102       .  S
C2039      C2045   1.531       .  S
C2039      C2044   1.526       .  S
C2039      C2043   1.527       .  S
C2041      H2042   1.111       .  S
C2041      C2047   1.563       .  S
C2041      C2046   1.556       .  S
C2041      C2048   1.560       .  S
C2043      C2046   1.363       .  D
C2043      C2152   1.489       .  S
C2044      C2047   1.374       .  D
C2044      C2080   1.494       .  S
C2045      C2048   1.372       .  D
C2045      C2136   1.503       .  S
C2046      C2164   1.472       .  S
C2047      C2247   1.480       .  S
C2048      C2184   1.479       .  S
C2049      H2050   1.102       .  S
C2049      C2055   1.528       .  S
C2049      C2054   1.527       .  S
C2049      C2053   1.530       .  S
C2051      H2052   1.110       .  S
C2051      C2057   1.565       .  S
C2051      C2056   1.559       .  S
C2051      C2058   1.557       .  S
C2053      C2056   1.370       .  D
C2053      C2109   1.495       .  S
C2054      C2057   1.374       .  D
C2054      C2123   1.492       .  S
C2055      C2058   1.362       .  D
C2055      C2079   1.495       .  S
C2056      C2154   1.479       .  S
C2057      C2174   1.480       .  S
C2058      C2207   1.474       .  S
C2059      H2060   1.102       .  S
C2059      C2065   1.525       .  S
C2059      C2064   1.531       .  S
C2059      C2063   1.532       .  S
C2061      H2062   1.111       .  S
C2061      C2067   1.559       .  S
C2061      C2066   1.556       .  S
C2061      C2068   1.556       .  S
C2063      C2066   1.372       .  D
C2063      C2137   1.494       .  S
C2064      C2067   1.372       .  D
C2064      C2081   1.494       .  S
C2065      C2068   1.363       .  D
C2065      C2121   1.492       .  S
C2066      C2157   1.477       .  S
C2067      C2227   1.478       .  S
C2068      C2167   1.468       .  S
O2069      C2079   1.257       .  A
O2070      C2080   1.256       .  A
O2070      V2077   1.851       .  S
O2071      C2081   1.255       .  A
O2072      C2082   1.254       .  A
O2073      C2082   1.276       .  A
O2074      C2081   1.278       .  A
O2075      C2080   1.275       .  A
O2075      V2078   1.951       .  S
O2076      C2079   1.277       .  A
V2077      V2078   2.044       .  T
O2083      C2093   1.275       .  A
O2084      C2094   1.277       .  A
O2084      V2091   1.954       .  S
O2085      C2095   1.278       .  A
O2086      C2096   1.277       .  A
O2087      C2096   1.255       .  A
O2088      C2095   1.255       .  A
O2089      C2094   1.256       .  A
O2089      V2092   1.854       .  S
O2090      C2093   1.256       .  A
V2091      V2092   2.043       .  T
O2097      C2107   1.255       .  A
O2098      C2108   1.255       .  A
O2099      C2109   1.256       .  A
O2100      C2110   1.256       .  A
O2100      V2105   1.853       .  S
O2101      C2110   1.277       .  A
O2101      V2106   1.954       .  S
O2102      C2109   1.277       .  A
O2103      C2108   1.277       .  A
O2104      C2107   1.279       .  A
V2105      V2106   2.038       .  T
O2111      C2121   1.256       .  A
O2112      C2122   1.256       .  A
O2113      C2123   1.255       .  A
O2114      C2124   1.255       .  A
O2114      V2119   1.851       .  S
O2115      C2124   1.277       .  A
O2115      V2120   1.954       .  S
O2116      C2123   1.276       .  A
O2117      C2122   1.277       .  A
O2118      C2121   1.277       .  A
V2119      V2120   2.046       .  T
O2125      C2135   1.278       .  A
O2126      C2136   1.279       .  A
O2127      C2137   1.278       .  A
O2128      C2138   1.277       .  A
O2128      V2133   1.954       .  S
O2129      C2138   1.256       .  A
O2129      V2134   1.851       .  S
O2130      C2137   1.255       .  A
O2131      C2136   1.257       .  A
O2132      C2135   1.256       .  A
V2133      V2134   2.037       .  T
O2139      C2149   1.254       .  A
O2139      V2147   1.846       .  S
O2140      C2150   1.255       .  A
O2141      C2151   1.256       .  A
O2142      C2152   1.257       .  A
O2143      C2152   1.275       .  A
O2144      C2151   1.276       .  A
O2145      C2150   1.278       .  A
O2146      C2149   1.276       .  A
O2146      V2148   1.951       .  S
V2147      V2148   2.046       .  T
C2153      C2154   1.404       .  A
C2153      C2158   1.398       .  A
C2153      H2160   1.083       .  S
C2154      C2155   1.405       .  A
C2155      C2156   1.397       .  A
C2155      F2162   1.357       .  S
C2156      C2157   1.402       .  A
C2156      H2161   1.084       .  S
C2157      C2158   1.402       .  A
C2158      F2159   1.353       .  S
C2163      C2164   1.402       .  A
C2163      C2168   1.398       .  A
C2163      H2170   1.083       .  S
C2164      C2165   1.403       .  A
C2165      C2166   1.397       .  A
C2165      F2172   1.357       .  S
C2166      C2167   1.401       .  A
C2166      H2171   1.084       .  S
C2167      C2168   1.402       .  A
C2168      F2169   1.357       .  S
C2173      C2174   1.406       .  A
C2173      C2178   1.401       .  A
C2173      H2180   1.083       .  S
C2174      C2175   1.402       .  A
C2175      C2176   1.387       .  A
C2175      F2182   1.352       .  S
C2176      C2177   1.397       .  A
C2176      H2181   1.077       .  S
C2177      C2178   1.408       .  A
C2178      F2179   1.357       .  S
C2183      C2184   1.404       .  A
C2183      C2188   1.398       .  A
C2183      H2190   1.083       .  S
C2184      C2185   1.406       .  A
C2185      C2186   1.395       .  A
C2185      F2192   1.355       .  S
C2186      C2187   1.401       .  A
C2186      H2191   1.084       .  S
C2187      C2188   1.405       .  A
C2188      F2189   1.357       .  S
C2193      C2194   1.400       .  A
C2193      C2198   1.396       .  A
C2193      H2200   1.079       .  S
C2194      C2195   1.405       .  A
C2195      C2196   1.400       .  A
C2195      F2202   1.356       .  S
C2196      C2197   1.403       .  A
C2196      H2201   1.083       .  S
C2197      C2198   1.402       .  A
C2198      F2199   1.357       .  S
C2203      C2204   1.403       .  A
C2203      C2208   1.399       .  A
C2203      H2210   1.083       .  S
C2204      C2205   1.401       .  A
C2205      C2206   1.397       .  A
C2205      F2212   1.357       .  S
C2206      C2207   1.401       .  A
C2206      H2211   1.081       .  S
C2207      C2208   1.403       .  A
C2208      F2209   1.357       .  S
C2213      C2214   1.401       .  A
C2213      C2218   1.395       .  A
C2213      H2220   1.077       .  S
C2214      C2215   1.405       .  A
C2215      C2216   1.401       .  A
C2215      F2222   1.357       .  S
C2216      C2217   1.404       .  A
C2216      H2221   1.083       .  S
C2217      C2218   1.400       .  A
C2218      F2219   1.358       .  S
C2223      C2224   1.405       .  A
C2223      C2228   1.399       .  A
C2223      H2230   1.082       .  S
C2224      C2225   1.405       .  A
C2225      C2226   1.393       .  A
C2225      F2232   1.354       .  S
C2226      C2227   1.400       .  A
C2226      H2231   1.083       .  S
C2227      C2228   1.407       .  A
C2228      F2229   1.357       .  S
C2233      C2234   1.403       .  A
C2233      C2238   1.398       .  A
C2233      H2240   1.084       .  S
C2234      C2235   1.406       .  A
C2235      C2236   1.400       .  A
C2235      F2242   1.356       .  S
C2236      C2237   1.401       .  A
C2236      H2241   1.084       .  S
C2237      C2238   1.401       .  A
C2238      F2239   1.354       .  S
C2243      C2244   1.402       .  A
C2243      C2248   1.398       .  A
C2243      H2250   1.083       .  S
C2244      C2245   1.405       .  A
C2245      C2246   1.396       .  A
C2245      F2252   1.357       .  S
C2246      C2247   1.402       .  A
C2246      H2251   1.082       .  S
C2247      C2248   1.406       .  A
C2248      F2249   1.355       .  S
C2253      C2254   1.405       .  A
C2253      C2258   1.399       .  A
C2253      H2260   1.083       .  S
C2254      C2255   1.402       .  A
C2255      C2256   1.393       .  A
C2255      F2262   1.355       .  S
C2256      C2257   1.400       .  A
C2256      H2261   1.075       .  S
C2257      C2258   1.407       .  A
C2258      F2259   1.358       .  S
C2263      C2264   1.402       .  A
C2263      C2268   1.400       .  A
C2263      H2270   1.083       .  S
C2264      C2265   1.403       .  A
C2265      C2266   1.397       .  A
C2265      F2272   1.357       .  S
C2266      C2267   1.400       .  A
C2266      H2271   1.083       .  S
C2267      C2268   1.405       .  A
C2268      F2269   1.357       .  S
