geometry optimzed in LAMMPS
_audit_creation_date              2020-11-30 
_audit_creation_method            'lammps2cif' 
_symmetry_space_group_name_H-M    'P1' 
_symmetry_Int_Tables_number       1 
_symmetry_cell_setting            triclinic 
loop_ 
_symmetry_equiv_pos_as_xyz 
  x,y,z 
_cell_length_a                    33.70054090827628 
_cell_length_b                    33.7135122737318 
_cell_length_c                    33.71673833352336 
_cell_angle_alpha                 90.00177124292944 
_cell_angle_beta                  89.9971865328454 
_cell_angle_gamma                 90.00720025952938 
loop_ 
_atom_site_label 
_atom_site_type_symbol 
_atom_site_fract_x 
_atom_site_fract_y 
_atom_site_fract_z 
_atom_site_charge 
C1          C  0.99979859  0.26354475  0.73530080     0.02170
C2          C  0.99956076  0.23271528  0.76088634     0.02160
C3          C  0.27113297  0.00167248  0.74408405     0.02170
C4          C  0.24305720  0.00148134  0.77266354     0.02160
C5          C  0.99960480  0.74107472  0.26894476     0.02170
C6          C  0.99973312  0.76711317  0.23854304     0.02160
C7          C  0.76730254  0.00167536  0.24056474     0.02170
C8          C  0.73473390  0.00151028  0.26398249     0.02160
C9          C  0.73028966  0.26077324  0.00069315     0.02170
C10         C  0.76090943  0.23498815  0.00092230     0.02160
C11         C  0.25742058  0.73113257  0.00152291     0.02170
C12         C  0.22891879  0.75930935  0.00157196     0.02160
C13         C  0.75702995  0.77235010  0.00121040     0.02170
C14         C  0.72877328  0.74392664  0.00115925     0.02160
C15         C  0.76164796  0.00139962  0.76767625     0.02170
C16         C  0.73105998  0.00121753  0.74180262     0.02160
C17         C  0.00004256  0.74107389  0.73321595     0.02170
C18         C  0.00004778  0.76738205  0.76338989     0.02160
O19         O  0.13813004  0.81451084  0.90619149    -0.80200
C20         C  0.11324219  0.98005322  0.88479910     0.99160
O21         O  0.14333775  0.96279697  0.89861538    -0.69310
O22         O  0.13153507  0.91686781  0.96015139    -0.72910
Al23       Al  0.15664807  0.90954511  0.90995534     1.48980
C24         C  0.11479748  0.88961825  0.97949283     0.94410
O25         O  0.04065425  0.87052780  0.91425252    -0.79130
O26         O  0.09572951  0.86247926  0.81325317    -0.72680
Al27       Al  0.09078578  0.84549322  0.90867369     1.90120
O28         O  0.03917140  0.90060742  0.85654922    -0.71750
O29         O  0.14222142  0.92624066  0.82100288    -0.71600
O30         O  0.08610248  0.96087802  0.86777418    -0.77260
O31         O  0.18775255  0.90575055  0.86281748    -0.75470
O32         O  0.11347920  0.88838953  0.88728086    -1.11600
O33         O  0.17927436  0.86051689  0.92693369    -0.70800
C34         C  0.17047821  0.82452036  0.92213847     0.99920
C35         C  0.02174268  0.88732149  0.88669770     0.96320
Al36       Al  0.09278462  0.91045164  0.84350818     1.55560
O37         O  0.10111072  0.85947495  0.96216331    -0.75420
C38         C  0.17811069  0.92142641  0.83024011     1.00490
C39         C  0.07974686  0.83028678  0.82385276     0.95370
O40         O  0.07481406  0.82218323  0.85993642    -0.80740
O41         O  0.86153002  0.90800398  0.81333919    -0.80200
C42         C  0.88672033  0.88522359  0.97944076     0.99160
O43         O  0.85735076  0.90013039  0.96197804    -0.69310
O44         O  0.86852964  0.96086931  0.91458721    -0.72910
Al45       Al  0.84368906  0.91047841  0.90875683     1.48980
C46         C  0.88662632  0.97991147  0.88793983     0.94410
O47         O  0.95985573  0.91362599  0.86832764    -0.79130
O48         O  0.90553683  0.81338371  0.86174347    -0.72680
Al49       Al  0.90937080  0.90898655  0.84409458     1.90120
O50         O  0.96117841  0.85721828  0.90066516    -0.71750
O51         O  0.85818247  0.82086627  0.92493871    -0.71600
O52         O  0.91356325  0.86760863  0.96041627    -0.77260
O53         O  0.81243163  0.86328876  0.90638010    -0.75470
O54         O  0.88676603  0.88764088  0.88738134    -1.11600
O55         O  0.82040032  0.92641804  0.86026295    -0.70800
C56         C  0.82881676  0.92269058  0.82416980     0.99920
C57         C  0.97861084  0.88693331  0.88651809     0.96320
Al58       Al  0.90756059  0.84379229  0.90969322     1.55560
O59         O  0.90087826  0.96255691  0.85823278    -0.75420
C60         C  0.82225641  0.83037949  0.92121665     1.00490
C61         C  0.92019054  0.82417152  0.82900428     0.95370
O62         O  0.92397872  0.86024792  0.82049318    -0.80740
O63         O  0.17908040  0.86035320  0.07585544    -0.80200
C64         C  0.02134686  0.88776019  0.11534571     0.99160
O65         O  0.04036934  0.87090433  0.08789957    -0.69310
O66         O  0.10091997  0.85954627  0.04022342    -0.72910
Al67       Al  0.09039040  0.84562757  0.09365060     1.48980
C68         C  0.11476740  0.88961693  0.02292824     0.94410
O69         O  0.14323947  0.96268369  0.10388592    -0.79130
O70         O  0.14183244  0.92614330  0.18157441    -0.72680
Al71       Al  0.15650707  0.90946295  0.09262493     1.90120
O72         O  0.08597093  0.96077931  0.13472175    -0.71750
O73         O  0.09521398  0.86243483  0.18908219    -0.71600
O74         O  0.03867251  0.90079842  0.14568066    -0.77260
O75         O  0.07421480  0.82231594  0.14229001    -0.75470
O76         O  0.11319490  0.88840235  0.11516395    -1.11600
O77         O  0.13760118  0.81447977  0.09627207    -0.70800
C78         C  0.17012296  0.82438956  0.08061741     0.99920
C79         C  0.11319413  0.97992136  0.11784936     0.96320
Al80       Al  0.09240984  0.91042901  0.15890898     1.55560
O81         O  0.13160028  0.91678106  0.04230719    -0.75420
C82         C  0.07924067  0.83028082  0.17838633     1.00490
C83         C  0.17777056  0.92152760  0.17239674     0.95370
O84         O  0.18752157  0.90579081  0.13987385    -0.80740
O85         O  0.82033991  0.92674702  0.14239254    -0.80200
C86         C  0.97815773  0.88747335  0.11516372     0.99160
O87         O  0.95910482  0.91471269  0.13231702    -0.69310
O88         O  0.89850458  0.96232034  0.14354078    -0.72910
Al89       Al  0.90896736  0.90894941  0.15739508     1.48980
C90         C  0.88454091  0.97961912  0.11355455     0.94410
O91         O  0.85638708  0.89893360  0.03997349    -0.79130
O92         O  0.85784278  0.82101906  0.07669637    -0.72680
Al93       Al  0.84304813  0.91000717  0.09333696     1.90120
O94         O  0.91356502  0.86802313  0.04185321    -0.71750
O95         O  0.90471290  0.81344696  0.14027459    -0.71600
O96         O  0.96089209  0.85723099  0.10184565    -0.77260
O97         O  0.92503222  0.86031775  0.18064598    -0.75470
O98         O  0.88632502  0.88747416  0.11446376    -1.11600
O99         O  0.86158253  0.90648937  0.18851130    -0.70800
C100        C  0.82914321  0.92224596  0.17841652     0.99920
C101        C  0.88643648  0.88502480  0.02268335     0.96320
Al102      Al  0.90723428  0.84380576  0.09230194     1.55560
O103        O  0.86790461  0.96027957  0.08624982    -0.75420
C104        C  0.92038817  0.82420500  0.17256260     1.00490
C105        C  0.82190271  0.83017222  0.08132614     0.95370
O106        O  0.81210517  0.86274552  0.09692045    -0.80740
O107        O  0.81190565  0.09554216  0.86333179    -0.80200
C108        C  0.97809754  0.11746240  0.88842312     0.99160
O109        O  0.96060117  0.10295567  0.85884117    -0.69310
O110        O  0.91312157  0.04227566  0.87001081    -0.72910
Al111      Al  0.90723963  0.09266103  0.84517139     1.48980
C112        C  0.88644709  0.02322869  0.88807220     0.94410
O113        O  0.86713986  0.08935341  0.96119645    -0.79130
O114        O  0.86042212  0.18975330  0.90679680    -0.72680
Al115      Al  0.84272808  0.09418883  0.91093408     1.90120
O116        O  0.89901632  0.14604513  0.96245654    -0.71750
O117        O  0.92375350  0.18203247  0.85990745    -0.71600
O118        O  0.95906746  0.13512472  0.91525491    -0.77260
O119        O  0.90482493  0.13996576  0.81398764    -0.75470
O120        O  0.88598064  0.11546701  0.88827225    -1.11600
O121        O  0.85849744  0.07667494  0.82200822    -0.70800
C122        C  0.82243487  0.08060678  0.83067713     0.99920
C123        C  0.88492606  0.11634573  0.97989195     0.96320
Al124      Al  0.90836296  0.15923963  0.90905906     1.55560
O125        O  0.85668031  0.04057977  0.90223438    -0.75420
C126        C  0.91972046  0.17282016  0.82399215     1.00490
C127        C  0.82772605  0.17900875  0.92163844     0.95370
O128        O  0.81929801  0.14294444  0.92572221    -0.80740
O129        O  0.86157056  0.09616340  0.18867668    -0.80200
C130        C  0.88475298  0.11639087  0.02287332     0.99160
O131        O  0.85505023  0.10217229  0.04024221    -0.69310
O132        O  0.86639765  0.04207761  0.08703949    -0.72910
Al133      Al  0.84196244  0.09253768  0.09364567     1.48980
C134        C  0.88409154  0.02297262  0.11375611     0.94410
O135        O  0.95873931  0.08817136  0.13200123    -0.79130
O136        O  0.90498791  0.18935593  0.13982843    -0.72680
Al137      Al  0.90866037  0.09382629  0.15723479     1.90120
O138        O  0.96022426  0.14512614  0.10065112    -0.71750
O139        O  0.85737983  0.18176920  0.07705806    -0.71600
O140        O  0.91154545  0.13445940  0.04160499    -0.77260
O141        O  0.81113470  0.14012756  0.09624320    -0.75470
O142        O  0.88558257  0.11517821  0.11438622    -1.11600
O143        O  0.81944517  0.07686749  0.14293387    -0.70800
C144        C  0.82874062  0.08111995  0.17883090     0.99920
C145        C  0.97766317  0.11522192  0.11442279     0.96320
Al146      Al  0.90648094  0.15872049  0.09193574     1.55560
O147        O  0.89842708  0.04039603  0.14348712    -0.75420
C148        C  0.82139603  0.17282292  0.08113509     1.00490
C149        C  0.92039654  0.17860491  0.17223857     0.95370
O150        O  0.92470071  0.14249107  0.18043916    -0.80740
O151        O  0.17921217  0.14275079  0.92697372    -0.80200
C152        C  0.02143592  0.11713568  0.88836238     0.99160
O153        O  0.04081135  0.13316420  0.91599798    -0.69310
O154        O  0.10209127  0.14437958  0.96254870    -0.72910
Al155      Al  0.09099036  0.15808274  0.90908500     1.48980
C156        C  0.11529442  0.11392225  0.97976561     0.94410
O157        O  0.14326507  0.04052181  0.89867365    -0.79130
O158        O  0.14141518  0.07616630  0.82168774    -0.72680
Al159      Al  0.15657105  0.09375736  0.91008424     1.90120
O160        O  0.08526778  0.04256043  0.86922868    -0.71750
O161        O  0.09576975  0.14029204  0.81388710    -0.71600
O162        O  0.03868525  0.10385100  0.85797002    -0.77260
O163        O  0.07427794  0.18098773  0.85996656    -0.75470
O164        O  0.11332490  0.11495181  0.88779406    -1.11600
O165        O  0.13842480  0.18878382  0.90554443    -0.70800
C166        C  0.17059175  0.17874123  0.92183519     0.99920
C167        C  0.11298278  0.02326817  0.88522179     0.96320
Al168      Al  0.09219185  0.09278045  0.84446747     1.55560
O169        O  0.13159292  0.08645583  0.96033609    -0.75420
C170        C  0.07941011  0.17242392  0.82392892     1.00490
C171        C  0.17742017  0.08130920  0.83043277     0.95370
O172        O  0.18730410  0.09760885  0.86265643    -0.80740
O173        O  0.09410511  0.14030473  0.18914957    -0.80200
C174        C  0.11508330  0.11370946  0.02317561     0.99160
O175        O  0.10101531  0.14366208  0.04047503    -0.69310
O176        O  0.04005332  0.13245893  0.08770007    -0.72910
Al177      Al  0.09022710  0.15755277  0.09377592     1.48980
C178        C  0.02089389  0.11521370  0.11481977     0.94410
O179        O  0.08558447  0.04207322  0.13448594    -0.79130
O180        O  0.18688748  0.09725115  0.14070447    -0.72680
Al181      Al  0.09163840  0.09244522  0.15880704     1.90120
O182        O  0.14309946  0.04042595  0.10414066    -0.71750
O183        O  0.17903239  0.14258625  0.07663674    -0.71600
O184        O  0.13184254  0.08648269  0.04255021    -0.77260
O185        O  0.13755987  0.18863847  0.09658457    -0.75470
O186        O  0.11280718  0.11464670  0.11532603    -1.11600
O187        O  0.07391968  0.18082853  0.14236608    -0.70800
C188        C  0.07858370  0.17265504  0.17845864     0.99920
C189        C  0.11306510  0.02305004  0.11785343     0.96320
Al190      Al  0.15632767  0.09362775  0.09312591     1.55560
O191        O  0.03806732  0.10194108  0.14511892    -0.75420
C192        C  0.17016720  0.17855537  0.08120079     1.00490
C193        C  0.17673867  0.08169222  0.17320320     0.95370
O194        O  0.14074088  0.07691906  0.18192369    -0.80740
C195        C  0.49997839  0.23944191  0.26709758     0.02170
C196        C  0.49975010  0.27016735  0.24139800     0.02160
C197        C  0.24023797  0.27004954  0.50107298     0.02170
C198        C  0.26622109  0.23958288  0.50081185     0.02160
C199        C  0.23171950  0.50188906  0.26123719     0.02170
C200        C  0.26234818  0.50164540  0.23542536     0.02160
C201        C  0.23108779  0.24094017  0.00185894     0.02170
C202        C  0.26282636  0.26533846  0.00156123     0.02160
C203        C  0.24039757  0.00181519  0.23243269     0.02170
C204        C  0.26608605  0.00176270  0.26315291     0.02160
C205        C  0.49990890  0.76106975  0.73225203     0.02170
C206        C  0.49991378  0.73517749  0.76278045     0.02160
C207        C  0.23720013  0.73672633  0.50081462     0.02170
C208        C  0.26103877  0.76897935  0.50082663     0.02160
C209        C  0.50022878  0.76150118  0.26964320     0.02170
C210        C  0.50024232  0.73545305  0.23924323     0.02160
O211        O  0.31295002  0.86317621  0.40584828    -0.80200
C212        C  0.47878473  0.88870875  0.38454703     0.99160
O213        O  0.46147539  0.85863219  0.39834746    -0.69310
O214        O  0.41516944  0.86961939  0.45991619    -0.72910
Al215      Al  0.40821128  0.84499653  0.40938571     1.48980
C216        C  0.38777594  0.88615057  0.47926321     0.94410
O217        O  0.36875270  0.96090139  0.41454787    -0.79130
O218        O  0.36116683  0.90663278  0.31320632    -0.72680
Al219      Al  0.34386133  0.91065738  0.40856707     1.90120
O220        O  0.39919072  0.96276957  0.35705228    -0.71750
O221        O  0.42485573  0.86045834  0.32053894    -0.71600
O222        O  0.45958818  0.91595902  0.36774419    -0.77260
O223        O  0.40479829  0.81430884  0.36186900    -0.75470
O224        O  0.38694350  0.88828157  0.38707160    -1.11600
O225        O  0.35922200  0.82201921  0.42595561    -0.70800
C226        C  0.32315803  0.83070803  0.42144099     0.99920
C227        C  0.38582639  0.97997784  0.38726279     0.96320
Al228      Al  0.40906459  0.90943713  0.34351607     1.55560
O229        O  0.35773973  0.90000322  0.46191751    -0.75420
C230        C  0.42023617  0.82448473  0.32931808     1.00490
C231        C  0.32881662  0.92224043  0.32382750     0.95370
O232        O  0.32055837  0.92685642  0.35991419    -0.80740
O233        O  0.40672353  0.13977802  0.31305955    -0.80200
C234        C  0.38604949  0.11570820  0.47963845     0.99160
O235        O  0.40141203  0.14468338  0.46207794    -0.69310
O236        O  0.46011500  0.13394886  0.41317042    -0.72910
Al237      Al  0.40973558  0.15836251  0.40850045     1.48980
C238        C  0.47872470  0.11508564  0.38686268     0.94410
O239        O  0.41194020  0.04166768  0.36823043    -0.79130
O240        O  0.31199057  0.09509859  0.36271177    -0.72680
Al241      Al  0.40745951  0.09213568  0.34403672     1.90120
O242        O  0.35660078  0.04070795  0.40234028    -0.71750
O243        O  0.31976717  0.14339330  0.42459822    -0.71600
O244        O  0.36685294  0.08968746  0.46098091    -0.77260
O245        O  0.36237064  0.18955191  0.40755157    -0.75470
O246        O  0.38656194  0.11507483  0.38750862    -1.11600
O247        O  0.42428201  0.18164308  0.35965748    -0.70800
C248        C  0.42090905  0.17276929  0.32365538     0.99920
C249        C  0.38573386  0.02310499  0.38730317     0.96320
Al250      Al  0.34292792  0.09432644  0.41037422     1.55560
O251        O  0.46110590  0.10019346  0.35768487    -0.75420
C252        C  0.32915154  0.17930336  0.42141256     1.00490
C253        C  0.32255844  0.08102821  0.32967607     0.95370
O254        O  0.35856383  0.07780508  0.32071968    -0.80740
O255        O  0.64087253  0.82148945  0.42662432    -0.80200
C256        C  0.61612145  0.97997929  0.38895603     0.99160
O257        O  0.63238128  0.96053896  0.41643949    -0.69310
O258        O  0.64277325  0.89890927  0.46264448    -0.72910
Al259      Al  0.65701175  0.90999439  0.40965734     1.48980
C260        C  0.61232542  0.88556331  0.47965907     0.94410
O261        O  0.53915725  0.85847939  0.39830472    -0.79130
O262        O  0.57576767  0.86053583  0.32107634    -0.72680
Al263      Al  0.59220396  0.84471319  0.40974440     1.90120
O264        O  0.54152378  0.91628426  0.36861168    -0.71750
O265        O  0.64011006  0.90626032  0.31426438    -0.71600
O266        O  0.60301842  0.96280561  0.35846568    -0.77260
O267        O  0.68059645  0.92656562  0.36105904    -0.75470
O268        O  0.61388223  0.88798783  0.38784156    -1.11600
O269        O  0.68752289  0.86224638  0.40649869    -0.70800
C270        C  0.67700137  0.82984671  0.42207129     0.99920
C271        C  0.52206126  0.88876990  0.38476357     0.96320
Al272      Al  0.59216949  0.90950070  0.34441851     1.55560
O273        O  0.58490206  0.86931387  0.46014348    -0.75420
C274        C  0.67243963  0.92189547  0.32491474     1.00490
C275        C  0.58028406  0.82445621  0.32976396     0.95370
O276        O  0.59594271  0.81423091  0.36218131    -0.80740
O277        O  0.63912544  0.09652079  0.31420160    -0.80200
C278        C  0.61331805  0.11778527  0.47991934     0.99160
O279        O  0.64351653  0.10429849  0.46264004    -0.69310
O280        O  0.63235233  0.04276752  0.41652306    -0.72910
Al281      Al  0.65699758  0.09323622  0.40944602     1.48980
C282        C  0.61581561  0.02338623  0.38917049     0.94410
O283        O  0.54100193  0.08812114  0.36956633    -0.79130
O284        O  0.59492568  0.18945182  0.36243786    -0.72680
Al285      Al  0.59144021  0.09400213  0.34496633     1.90120
O286        O  0.53907391  0.14532437  0.40051362    -0.71750
O287        O  0.64142328  0.18204778  0.42596867    -0.71600
O288        O  0.58602843  0.13457369  0.46075110    -0.77260
O289        O  0.68759782  0.14073811  0.40584087    -0.75470
O290        O  0.61367559  0.11550918  0.38810128    -1.11600
O291        O  0.68003608  0.07651756  0.36069082    -0.70800
C292        C  0.67155363  0.08093321  0.32461450     0.99920
C293        C  0.52188920  0.11521838  0.38689515     0.96320
Al294      Al  0.59240069  0.15897594  0.41028422     1.55560
O295        O  0.60196468  0.04067393  0.35909226    -0.75420
C296        C  0.67741391  0.17329325  0.42124207     1.00490
C297        C  0.57963531  0.17880448  0.32994058     0.95370
O298        O  0.57540732  0.14269176  0.32154151    -0.80740
O299        O  0.59559112  0.81405137  0.64000232    -0.80200
C300        C  0.61594381  0.97961662  0.61405790     0.99160
O301        O  0.60278288  0.96239683  0.64448336    -0.69310
O302        O  0.54109404  0.91635412  0.63362890    -0.72910
Al303      Al  0.59158588  0.90914838  0.65813336     1.48980
C304        C  0.52161394  0.88892733  0.61733967     0.94410
O305        O  0.58464857  0.86951168  0.54234492    -0.79130
O306        O  0.68715523  0.86201222  0.59653093    -0.72680
Al307      Al  0.59183646  0.84468110  0.59260289     1.90120
O308        O  0.64272376  0.89874237  0.54008884    -0.71750
O309        O  0.68000608  0.92629990  0.64201332    -0.71600
O310        O  0.63207321  0.96025754  0.58644103    -0.77260
O311        O  0.63935523  0.90549361  0.68846161    -0.75470
O312        O  0.61346432  0.88779794  0.61474009    -1.11600
O313        O  0.57489219  0.86013239  0.68110108    -0.70800
C314        C  0.57974125  0.82411028  0.67236254     0.99920
C315        C  0.61225271  0.88558130  0.52294053     0.96320
Al316      Al  0.65670883  0.90977859  0.59322049     1.55560
O317        O  0.53870521  0.85851405  0.60400489    -0.75420
C318        C  0.67165376  0.92138657  0.67808717     1.00490
C319        C  0.67669477  0.82971870  0.58070043     0.95370
O320        O  0.64057851  0.82149838  0.57574039    -0.80740
O321        O  0.67942662  0.07579283  0.64292990    -0.80200
C322        C  0.52149202  0.11391195  0.61663414     0.99160
O323        O  0.54086811  0.08634538  0.63281102    -0.69310
O324        O  0.60239612  0.04014786  0.64441075    -0.72910
Al325      Al  0.59104736  0.09349040  0.65793855     1.48980
C326        C  0.61578893  0.02294091  0.61405540     0.94410
O327        O  0.64346824  0.10392482  0.54041028    -0.79130
O328        O  0.64148377  0.18078940  0.57587133    -0.72680
Al329      Al  0.65680902  0.09258379  0.59376193     1.90120
O330        O  0.58532960  0.13310891  0.54246139    -0.71750
O331        O  0.59599254  0.18857668  0.64001189    -0.71600
O332        O  0.53875793  0.14444485  0.60366939    -0.77260
O333        O  0.57421912  0.14259721  0.68069274    -0.75470
O334        O  0.61346961  0.11476209  0.61484306    -1.11600
O335        O  0.63841344  0.09718232  0.68879554    -0.70800
C336        C  0.67066739  0.08093524  0.67891195     0.99920
C337        C  0.61310784  0.11725547  0.52315129     0.96320
Al338      Al  0.59229317  0.15798635  0.59258704     1.55560
O339        O  0.63195772  0.04234334  0.58650641    -0.75420
C340        C  0.57962574  0.17859699  0.67214632     1.00490
C341        C  0.67750960  0.17218031  0.58110544     0.95370
O342        O  0.68745066  0.14007434  0.59758644    -0.80740
O343        O  0.40459800  0.18850644  0.63934357    -0.80200
C344        C  0.38326003  0.02296488  0.61426566     0.99160
O345        O  0.39713857  0.04024582  0.64429309    -0.69310
O346        O  0.45870546  0.08625826  0.63276382    -0.72910
Al347      Al  0.40837108  0.09344524  0.65767739     1.48980
C348        C  0.47808602  0.11367962  0.61634941     0.94410
O349        O  0.41332660  0.13255456  0.54183824    -0.79130
O350        O  0.31184631  0.14082287  0.59607876    -0.72680
Al351      Al  0.40740560  0.15760663  0.59196477     1.90120
O352        O  0.35564910  0.10235253  0.54005552    -0.71750
O353        O  0.31925343  0.07709868  0.64290829    -0.71600
O354        O  0.36621988  0.04212396  0.58714076    -0.77260
O355        O  0.36113167  0.09712947  0.68860133    -0.75470
O356        O  0.38584434  0.11468222  0.61447762    -1.11600
O357        O  0.42517399  0.14237734  0.68042907    -0.70800
C358        C  0.42039673  0.17837839  0.67172255     0.99920
C359        C  0.38594045  0.11558486  0.52279392     0.96320
Al360      Al  0.34210586  0.09269976  0.59355524     1.55560
O361        O  0.46077148  0.14378251  0.60264053    -0.75420
C362        C  0.32847258  0.08168590  0.67882588     1.00490
C363        C  0.32274196  0.17302929  0.58029560     0.95370
O364        O  0.35890002  0.18094288  0.57569306    -0.80740
O365        O  0.42528897  0.86060142  0.68087695    -0.80200
C366        C  0.38750030  0.88590543  0.52268164     0.99160
O367        O  0.41499942  0.86968566  0.54214372    -0.69310
O368        O  0.46111284  0.85867052  0.60383484    -0.72910
Al369      Al  0.40791693  0.84487629  0.59252808     1.48980
C370        C  0.47828985  0.88905005  0.61717724     0.94410
O371        O  0.39710386  0.96257121  0.64440580    -0.79130
O372        O  0.32000806  0.92662564  0.64236157    -0.72680
Al373      Al  0.40848644  0.90941988  0.65793797     1.90120
O374        O  0.36770623  0.96036610  0.58642384    -0.71750
O375        O  0.31263253  0.86237316  0.59670457    -0.71600
O376        O  0.35697529  0.89901647  0.53985928    -0.77260
O377        O  0.35904507  0.82177929  0.57573524    -0.75470
O378        O  0.38641937  0.88803047  0.61465198    -1.11600
O379        O  0.40432834  0.81430421  0.64014294    -0.70800
C380        C  0.42028065  0.82456617  0.67243581     0.99920
C381        C  0.38366784  0.97974044  0.61409315     0.96320
Al382      Al  0.34310577  0.91002631  0.59327623     1.55560
O383        O  0.45885511  0.91664424  0.63323440    -0.75420
C384        C  0.32295140  0.83016264  0.58066056     1.00490
C385        C  0.32868761  0.92171373  0.67839970     0.95370
O386        O  0.36095126  0.90560516  0.68844741    -0.80740
C387        C  0.73803719  0.76729888  0.50152430     0.02170
C388        C  0.76175177  0.73496546  0.50145103     0.02160
C389        C  0.23294430  0.50183917  0.73928106     0.02170
C390        C  0.26429219  0.50141866  0.76420452     0.02160
C391        C  0.49968515  0.26955352  0.76058539     0.02170
C392        C  0.49987566  0.24264846  0.73096261     0.02160
O393        O  0.63796649  0.68847275  0.09636533    -0.80200
C394        C  0.61327229  0.52278517  0.11728283     0.99160
O395        O  0.64339409  0.54011719  0.10359302    -0.69310
O396        O  0.63163869  0.58624007  0.04214384    -0.72910
Al397      Al  0.65663617  0.59347114  0.09241015     1.48980
C398        C  0.61489925  0.61350032  0.02281696     0.94410
O399        O  0.54060871  0.63236051  0.08799133    -0.79130
O400        O  0.59549845  0.64016803  0.18909616    -0.72680
Al401      Al  0.59068961  0.65742732  0.09371289     1.90120
O402        O  0.53907917  0.60212620  0.14561253    -0.71750
O403        O  0.64198747  0.57649139  0.18124682    -0.71600
O404        O  0.58605243  0.54190792  0.13424927    -0.77260
O405        O  0.68760888  0.59721691  0.13963814    -0.75470
O406        O  0.61338881  0.61449863  0.11503422    -1.11600
O407        O  0.67922609  0.64259556  0.07560121    -0.70800
C408        C  0.67035753  0.67856603  0.08045916     0.99920
C409        C  0.52168533  0.61551732  0.11550505     0.96320
Al410      Al  0.59263145  0.59228128  0.15869591     1.55560
O411        O  0.60112796  0.64358670  0.04018040    -0.75420
C412        C  0.67788550  0.58143041  0.17213972     1.00490
C413        C  0.57959370  0.67241781  0.17856765     0.95370
O414        O  0.57464388  0.68059807  0.14250186    -0.80740
O415        O  0.67946027  0.64254655  0.92658248    -0.80200
C416        C  0.52171720  0.61572870  0.88675025     0.99160
O417        O  0.54072200  0.63256268  0.91422961    -0.69310
O418        O  0.60128594  0.64367891  0.96203645    -0.72910
Al419      Al  0.59088694  0.65758986  0.90853332     1.48980
C420        C  0.61496633  0.61354411  0.97936914     0.94410
O421        O  0.64337495  0.54027643  0.89851448    -0.79130
O422        O  0.64215755  0.57679402  0.82081165    -0.72680
Al423      Al  0.65675941  0.59349605  0.90975873     1.90120
O424        O  0.58614695  0.54222946  0.86764559    -0.71750
O425        O  0.59568013  0.64056402  0.81313650    -0.71600
O426        O  0.53909147  0.60244337  0.85655818    -0.77260
O427        O  0.57482060  0.68089360  0.85980000    -0.75470
O428        O  0.61355249  0.61467241  0.88712836    -1.11600
O429        O  0.63824016  0.68853289  0.90593611    -0.70800
C430        C  0.67063836  0.67853598  0.92177988     0.99920
C431        C  0.61331915  0.52304195  0.88455812     0.96320
Al432      Al  0.59275865  0.59261839  0.84340301     1.55560
O433        O  0.63171165  0.58630233  0.96002320    -0.75420
C434        C  0.57969853  0.67275298  0.82371435     1.00490
C435        C  0.67809896  0.58135411  0.82999947     0.95370
O436        O  0.68787375  0.59704369  0.86254451    -0.80740
O437        O  0.36185326  0.59536141  0.18926296    -0.80200
C438        C  0.38692569  0.61788983  0.02305117     0.99160
O439        O  0.35752801  0.60290914  0.04048207    -0.69310
O440        O  0.36871280  0.54215572  0.08799670    -0.72910
Al441      Al  0.34382683  0.59251968  0.09381827     1.48980
C442        C  0.38658349  0.52311455  0.11479020     0.94410
O443        O  0.45981874  0.58919576  0.13375972    -0.79130
O444        O  0.40540550  0.68965822  0.14083769    -0.72680
Al445      Al  0.40956609  0.59408719  0.15835385     1.90120
O446        O  0.46121576  0.64591931  0.10194283    -0.71750
O447        O  0.35819393  0.68211535  0.07758127    -0.71600
O448        O  0.41370664  0.63552033  0.04214657    -0.77260
O449        O  0.31249105  0.63966842  0.09621752    -0.75470
O450        O  0.38686543  0.61540967  0.11513477    -1.11600
O451        O  0.32067509  0.57658386  0.14247956    -0.70800
C452        C  0.32917906  0.58046877  0.17856163     0.99920
C453        C  0.47858943  0.61600265  0.11574547     0.96320
Al454      Al  0.40758606  0.65929416  0.09286179     1.55560
O455        O  0.40077667  0.54049792  0.14449981    -0.75420
C456        C  0.32227937  0.67258771  0.08136867     1.00490
C457        C  0.42043281  0.67890068  0.17341253     0.95370
O458        O  0.42452748  0.64282583  0.18178621    -0.80740
O459        O  0.32000872  0.57707294  0.86042357    -0.80200
C460        C  0.47853131  0.61616103  0.88671641     0.99160
O461        O  0.45958165  0.58945437  0.86870037    -0.69310
O462        O  0.39983342  0.54117689  0.85872720    -0.72910
Al463      Al  0.40902553  0.59444732  0.84447105     1.48980
C464        C  0.38547863  0.52381901  0.88840275     0.94410
O465        O  0.35706273  0.60379714  0.96237907    -0.79130
O466        O  0.35840201  0.68278379  0.92517003    -0.72680
Al467      Al  0.34334350  0.59334018  0.90909503     1.90120
O468        O  0.41360431  0.63576202  0.96066689    -0.71750
O469        O  0.40575705  0.69002882  0.86192809    -0.71600
O470        O  0.46122805  0.64596360  0.90084279    -0.77260
O471        O  0.42401236  0.64299688  0.82078635    -0.75470
O472        O  0.38658252  0.61592971  0.88769713    -1.11600
O473        O  0.36124307  0.59576298  0.81370513    -0.70800
C474        C  0.32862327  0.58071437  0.82431790     0.99920
C475        C  0.38676729  0.61821023  0.97976062     0.96320
Al476      Al  0.40766411  0.65964885  0.90993497     1.55560
O477        O  0.36794198  0.54292274  0.91533478    -0.75420
C478        C  0.42031040  0.67910292  0.82918201     1.00490
C479        C  0.32242781  0.67349118  0.92128522     0.95370
O480        O  0.31241898  0.64066903  0.90637257    -0.80740
O481        O  0.59471888  0.36274357  0.81321950    -0.80200
C482        C  0.61563480  0.38889602  0.97900811     0.99160
O483        O  0.60212296  0.35867248  0.96172135    -0.69310
O484        O  0.54081297  0.36977267  0.91519038    -0.72910
Al485      Al  0.59108375  0.34496482  0.90843846     1.48980
C486        C  0.52150142  0.38678837  0.88807154     0.94410
O487        O  0.58558893  0.46070424  0.86831131    -0.79130
O488        O  0.68721162  0.40577593  0.86153408    -0.72680
Al489      Al  0.59193776  0.41037908  0.84377997     1.90120
O490        O  0.64335565  0.46254602  0.89812250    -0.71750
O491        O  0.67960998  0.36045613  0.92573488    -0.71600
O492        O  0.63207561  0.41635903  0.95966692    -0.77260
O493        O  0.63862341  0.31426217  0.90507631    -0.75470
O494        O  0.61332329  0.38813658  0.88703236    -1.11600
O495        O  0.57445377  0.32187479  0.85965920    -0.70800
C496        C  0.57906140  0.33036962  0.82359914     0.99920
C497        C  0.61317996  0.47986053  0.88463746     0.96320
Al498      Al  0.65672648  0.40934161  0.90917226     1.55560
O499        O  0.53861537  0.40020865  0.85774811    -0.75420
C500        C  0.67100882  0.32445000  0.92088198     1.00490
C501        C  0.67692644  0.42141617  0.82910809     0.95370
O502        O  0.64089078  0.42630631  0.82057737    -0.80740
O503        O  0.57391689  0.32195312  0.14206760    -0.80200
C504        C  0.61303061  0.47954528  0.11681590     0.99160
O505        O  0.58523055  0.46026505  0.13269971    -0.69310
O506        O  0.53855601  0.39904151  0.14403069    -0.72910
Al507      Al  0.59205690  0.41008025  0.15754638     1.48980
C508        C  0.52125893  0.38586850  0.11362140     0.94410
O509        O  0.60206645  0.35843552  0.03956858    -0.79130
O510        O  0.67914036  0.35974492  0.07532319    -0.72680
Al511      Al  0.59074497  0.34479488  0.09296896     1.90120
O512        O  0.63182083  0.41624290  0.04183261    -0.71750
O513        O  0.68718357  0.40500075  0.13965577    -0.71600
O514        O  0.64336308  0.46225476  0.10348165    -0.77260
O515        O  0.64121888  0.42669410  0.18038717    -0.75470
O516        O  0.61320895  0.38785220  0.11428534    -1.11600
O517        O  0.59561530  0.36258553  0.18812235    -0.70800
C518        C  0.57923419  0.33045988  0.17809268     0.99920
C519        C  0.61553757  0.38879445  0.02238095     0.96320
Al520      Al  0.65660026  0.40890297  0.09213026     1.55560
O521        O  0.54061027  0.36987486  0.08593961    -0.75420
C522        C  0.67723277  0.42142742  0.17179337     1.00490
C523        C  0.67029638  0.32378530  0.08044314     0.95370
O524        O  0.63802556  0.31393421  0.09663595    -0.80740
O525        O  0.41503457  0.31571178  0.86146483    -0.80200
C526        C  0.38483171  0.48055516  0.88796956     0.99160
O527        O  0.40589623  0.46251741  0.86316036    -0.69310
O528        O  0.46029163  0.40805288  0.86364368    -0.72910
Al529      Al  0.40804225  0.41001010  0.84431249     1.48980
C530        C  0.47822668  0.38668480  0.88825452     0.94410
O531        O  0.40461455  0.36189261  0.96210902    -0.79130
O532        O  0.31317251  0.36179586  0.91632473    -0.72680
Al533      Al  0.40721669  0.34350755  0.90976184     1.90120
O534        O  0.35942506  0.40836409  0.96200257    -0.71750
O535        O  0.31386619  0.41719697  0.86116402    -0.71600
O536        O  0.35992312  0.46253171  0.90874972    -0.77260
O537        O  0.36036441  0.41697645  0.81576290    -0.75470
O538        O  0.38539477  0.38768215  0.88774640    -1.11600
O539        O  0.41557757  0.36222461  0.81616713    -0.70800
C540        C  0.42032584  0.32676251  0.82629710     0.99920
C541        C  0.38378163  0.38695697  0.97998302     0.96320
Al542      Al  0.34126212  0.40994383  0.90956791     1.55560
O543        O  0.46004699  0.36196424  0.90920735    -0.75420
C544        C  0.32490750  0.42189665  0.82592817     1.00490
C545        C  0.32370592  0.32640631  0.92114501     0.95370
O546        O  0.35897750  0.31567012  0.91600897    -0.80740
O547        O  0.40490196  0.36300210  0.18853033    -0.80200
C548        C  0.38410752  0.38719757  0.02297309     0.99160
O549        O  0.39792655  0.35729087  0.04032668    -0.69310
O550        O  0.45867540  0.36821288  0.08679999    -0.72910
Al551      Al  0.40802007  0.34397530  0.09348450     1.48980
C552        C  0.47789852  0.38563519  0.11366719     0.94410
O553        O  0.41312376  0.46070563  0.13245822    -0.79130
O554        O  0.31182941  0.40701085  0.13977619    -0.72680
Al555      Al  0.40727707  0.41035447  0.15738945     1.90120
O556        O  0.35618061  0.46253530  0.10113232    -0.71750
O557        O  0.31908475  0.36002193  0.07677075    -0.71600
O558        O  0.36686461  0.41441403  0.04182251    -0.77260
O559        O  0.36016689  0.31343056  0.09628030    -0.75470
O560        O  0.38578136  0.38764163  0.11444240    -1.11600
O561        O  0.42395312  0.32114877  0.14246539    -0.70800
C562        C  0.41991374  0.33023028  0.17841832     0.99920
C563        C  0.38623213  0.47981344  0.11479286     0.96320
Al564      Al  0.34241453  0.40892388  0.09203990     1.55560
O565        O  0.46056625  0.39996911  0.14344326    -0.75420
C566        C  0.32758642  0.32395858  0.08105409     1.00490
C567        C  0.32251746  0.42217122  0.17229423     0.95370
O568        O  0.35862257  0.42635804  0.18071008    -0.80740
C569        C  0.74032893  0.50113108  0.76951660     0.02170
C570        C  0.76575594  0.50119829  0.73858575     0.02160
C571        C  0.99934407  0.23579655  0.23880497     0.02170
C572        C  0.99925764  0.26177261  0.26928908     0.02160
C573        C  0.74085174  0.23220732  0.50121776     0.02170
C574        C  0.76686485  0.26263621  0.50145483     0.02160
C575        C  0.74243012  0.50132201  0.22994278     0.02170
C576        C  0.77025334  0.50115308  0.25874553     0.02160
O577        O  0.09518674  0.68892098  0.36194825    -0.80200
C578        C  0.11621876  0.52337787  0.38834624     0.99160
O579        O  0.10299876  0.54056454  0.35794096    -0.69310
O580        O  0.04108214  0.58648275  0.36837605    -0.72910
Al581      Al  0.09173972  0.59372746  0.34409875     1.48980
C582        C  0.02151066  0.61386702  0.38462686     0.94410
O583        O  0.08443569  0.63379194  0.45986812    -0.79130
O584        O  0.18699120  0.64139937  0.40607715    -0.72680
Al585      Al  0.09156918  0.65840499  0.40947350     1.90120
O586        O  0.14245128  0.60447469  0.46225551    -0.71750
O587        O  0.18027675  0.57707867  0.36058984    -0.71600
O588        O  0.13233179  0.54280078  0.41594260    -0.77260
O589        O  0.13962899  0.59740180  0.31393583    -0.75470
O590        O  0.11342046  0.61527467  0.38752469    -1.11600
O591        O  0.07500563  0.64258162  0.32089577    -0.70800
C592        C  0.07953538  0.67865639  0.32955054     0.99920
C593        C  0.11199018  0.61771386  0.47933458     0.96320
Al594      Al  0.15670382  0.59348731  0.40923858     1.55560
O595        O  0.03853938  0.64427752  0.39806631    -0.75420
C596        C  0.17199994  0.58178073  0.32448158     1.00490
C597        C  0.17632735  0.67375387  0.42164441     0.95370
O598        O  0.14016021  0.68188599  0.42630638    -0.80740
O599        O  0.92481890  0.64194347  0.32088020    -0.80200
C600        C  0.88751486  0.61747860  0.47943832     0.99160
O601        O  0.91496949  0.63370968  0.45990260    -0.69310
O602        O  0.96103012  0.64417044  0.39802718    -0.72910
Al603      Al  0.90793765  0.65822829  0.40932685     1.48980
C604        C  0.97815393  0.61377162  0.38470558     0.94410
O605        O  0.89671704  0.54034679  0.35812205    -0.79130
O606        O  0.81941093  0.57671967  0.36017184    -0.72680
Al607      Al  0.90809448  0.59333111  0.34420774     1.90120
O608        O  0.86704354  0.54273700  0.41594974    -0.71750
O609        O  0.81256322  0.64112309  0.40569653    -0.71600
O610        O  0.85696747  0.60432581  0.46234336    -0.77260
O611        O  0.85926688  0.68166131  0.42609166    -0.75470
O612        O  0.88620150  0.61501499  0.38747060    -1.11600
O613        O  0.90441420  0.68855428  0.36153301    -0.70800
C614        C  0.92002695  0.67803448  0.32915636     0.99920
C615        C  0.88311016  0.52327151  0.38840001     0.96320
Al616      Al  0.84280603  0.59329564  0.40907107     1.55560
O617        O  0.95864800  0.58619545  0.36867715    -0.75420
C618        C  0.82311878  0.67339494  0.42146585     1.00490
C619        C  0.82807147  0.58122823  0.32408799     0.95370
O620        O  0.86045546  0.59696274  0.31383072    -0.80740
O621        O  0.81290671  0.64000340  0.59606206    -0.80200
C622        C  0.97863170  0.61415693  0.61766990     0.99160
O623        O  0.96138018  0.64429890  0.60394483    -0.69310
O624        O  0.91514179  0.63376832  0.54225877    -0.72910
Al625      Al  0.90819838  0.65810162  0.59294895     1.48980
C626        C  0.88781819  0.61716733  0.52286490     0.94410
O627        O  0.86847095  0.54207318  0.58748080    -0.79130
O628        O  0.86095512  0.59618738  0.68883489    -0.72680
Al629      Al  0.84374867  0.59245576  0.59343214     1.90120
O630        O  0.89895024  0.54011199  0.64492946    -0.71750
O631        O  0.92472840  0.64225863  0.68177097    -0.71600
O632        O  0.95940145  0.58688690  0.63439379    -0.77260
O633        O  0.90481986  0.68859602  0.64060800    -0.75470
O634        O  0.88683377  0.61472783  0.61506093    -1.11600
O635        O  0.85932267  0.68124772  0.57646844    -0.70800
C636        C  0.82323842  0.67256931  0.58075025     0.99920
C637        C  0.88554315  0.52293644  0.61472631     0.96320
Al638      Al  0.90887193  0.59339897  0.65858922     1.55560
O639        O  0.85783980  0.60313076  0.54016750    -0.75420
C640        C  0.92017767  0.67827135  0.67314495     1.00490
C641        C  0.82854286  0.58077789  0.67811471     0.95370
O642        O  0.82029146  0.57631923  0.64200932    -0.80740
O643        O  0.07550365  0.64211653  0.68135237    -0.80200
C644        C  0.11204448  0.61776611  0.52261840     0.99160
O645        O  0.08473817  0.63420313  0.54214020    -0.69310
O646        O  0.03895109  0.64444363  0.60403830    -0.72910
Al647      Al  0.09190910  0.65846359  0.59273175     1.48980
C648        C  0.02188801  0.61409892  0.61747421     0.94410
O649        O  0.10291218  0.54011985  0.64359620    -0.79130
O650        O  0.18065996  0.57701416  0.64104159    -0.72680
Al651      Al  0.09198828  0.59335303  0.65775394     1.90120
O652        O  0.13263238  0.54246255  0.58583837    -0.71750
O653        O  0.18726996  0.64119229  0.59542607    -0.71600
O654        O  0.14240753  0.60420679  0.53960452    -0.77260
O655        O  0.14041272  0.68200125  0.57600914    -0.75470
O656        O  0.11369276  0.61509915  0.61440035    -1.11600
O657        O  0.09552699  0.68868182  0.64048633    -0.70800
C658        C  0.07997860  0.67824082  0.67288596     0.99920
C659        C  0.11621944  0.52296486  0.61319828     0.96320
Al660      Al  0.15690685  0.59328500  0.59249477     1.55560
O661        O  0.04135791  0.58655280  0.63356054    -0.75420
C662        C  0.17657169  0.67370798  0.58023290     1.00490
C663        C  0.17235590  0.58148461  0.67716997     0.95370
O664        O  0.13984317  0.59665621  0.68785636    -0.80740
O665        O  0.90471445  0.31459547  0.36223552    -0.80200
C666        C  0.88273797  0.48002984  0.38824965     0.99160
O667        O  0.89679690  0.46283544  0.35826998    -0.69310
O668        O  0.95851334  0.41689551  0.36925824    -0.72910
Al669      Al  0.90803341  0.40980085  0.34452731     1.48980
C670        C  0.97793769  0.38947370  0.38562131     0.94410
O671        O  0.91321874  0.36989421  0.46024501    -0.79130
O672        O  0.81177955  0.36174361  0.40636372    -0.72680
Al673      Al  0.90739514  0.34521810  0.40987349     1.90120
O674        O  0.85566585  0.40031963  0.46218885    -0.71750
O675        O  0.81873097  0.42552172  0.35964298    -0.71600
O676        O  0.86563517  0.46077302  0.41526731    -0.77260
O677        O  0.86071973  0.40624617  0.31373043    -0.75470
O678        O  0.88565046  0.38824745  0.38767893    -1.11600
O679        O  0.92476237  0.36112565  0.32134950    -0.70800
C680        C  0.92013965  0.32505345  0.32976800     0.99920
C681        C  0.88592142  0.38693875  0.47936435     0.96320
Al682      Al  0.84185266  0.40998917  0.40882777     1.55560
O683        O  0.96066241  0.35933091  0.39928023    -0.75420
C684        C  0.82792617  0.42125733  0.32369106     1.00490
C685        C  0.82286369  0.32944492  0.42179953     0.95370
O686        O  0.85905698  0.32156501  0.42603260    -0.80740
O687        O  0.17958405  0.42688505  0.35954071    -0.80200
C688        C  0.02136124  0.38925007  0.38538750     0.99160
O689        O  0.04081992  0.41677961  0.36922980    -0.69310
O690        O  0.10256696  0.46286396  0.35797996    -0.72910
Al691      Al  0.09110475  0.40959574  0.34424573     1.48980
C692        C  0.11603772  0.48001669  0.38833648     0.94410
O693        O  0.14328699  0.39877631  0.46183957    -0.79130
O694        O  0.14107324  0.32178647  0.42605668    -0.72680
Al695      Al  0.15677879  0.41011869  0.40857935     1.90120
O696        O  0.08516940  0.36955951  0.45970129    -0.71750
O697        O  0.09543523  0.31436352  0.36185281    -0.71600
O698        O  0.03855432  0.35870819  0.39841266    -0.77260
O699        O  0.07414331  0.36061945  0.32125684    -0.75470
O700        O  0.11337757  0.38811413  0.38733730    -1.11600
O701        O  0.13856037  0.40592032  0.31348730    -0.70800
C702        C  0.17086714  0.42198328  0.32352595     0.99920
C703        C  0.11292720  0.38541395  0.47905317     0.96320
Al704      Al  0.09199341  0.34487130  0.40942750     1.55560
O705        O  0.13216758  0.46052792  0.41584506    -0.75420
C706        C  0.07917248  0.32454568  0.32971832     1.00490
C707        C  0.17714992  0.33034539  0.42108827     0.95370
O708        O  0.18726417  0.36250984  0.40481417    -0.80740
O709        O  0.90636238  0.36328577  0.68918860    -0.80200
C710        C  0.88607299  0.38686740  0.52252522     0.99160
O711        O  0.90114967  0.35777064  0.54013799    -0.69310
O712        O  0.95989488  0.36911326  0.58884411    -0.72910
Al713      Al  0.90969923  0.34446227  0.59381691     1.48980
C714        C  0.97851542  0.38786807  0.61521811     0.94410
O715        O  0.91182330  0.46123291  0.63358702    -0.79130
O716        O  0.81180485  0.40745769  0.63921645    -0.72680
Al717      Al  0.90724364  0.41085277  0.65802772     1.90120
O718        O  0.85631947  0.46210539  0.59974859    -0.71750
O719        O  0.81997547  0.35916098  0.57729203    -0.71600
O720        O  0.86711623  0.41309116  0.54115555    -0.77260
O721        O  0.86242878  0.31317785  0.59517580    -0.75470
O722        O  0.88645899  0.38776635  0.61463161    -1.11600
O723        O  0.92451743  0.32150133  0.64275432    -0.70800
C724        C  0.92087084  0.33038351  0.67873161     0.99920
C725        C  0.88549975  0.47977566  0.61464600     0.96320
Al726      Al  0.84288883  0.40837056  0.59162721     1.55560
O727        O  0.96092566  0.40264649  0.64448870    -0.75420
C728        C  0.82934510  0.32327528  0.58089705     1.00490
C729        C  0.82226165  0.42185085  0.67216008     0.95370
O730        O  0.85825127  0.42532004  0.68113447    -0.80740
O731        O  0.13856867  0.40626018  0.68798766    -0.80200
C732        C  0.11311676  0.38491051  0.52229211     0.99160
O733        O  0.14333839  0.39837494  0.53958819    -0.69310
O734        O  0.13236896  0.46006199  0.58565766    -0.72910
Al735      Al  0.15682283  0.40946773  0.59281757     1.48980
C736        C  0.11581267  0.47950826  0.61296261     0.94410
O737        O  0.04078304  0.41485404  0.63232951    -0.79130
O738        O  0.09466860  0.31340515  0.63980170    -0.72680
Al739      Al  0.09107018  0.40888536  0.65709650     1.90120
O740        O  0.03879155  0.35748117  0.60169893    -0.71750
O741        O  0.14109699  0.32068474  0.57623008    -0.71600
O742        O  0.08577695  0.36817886  0.54145040    -0.77260
O743        O  0.18732295  0.36186722  0.59648862    -0.75470
O744        O  0.11340360  0.38729677  0.61406692    -1.11600
O745        O  0.17974178  0.42619586  0.64168380    -0.70800
C746        C  0.17099731  0.42192072  0.67772961     0.99920
C747        C  0.02164972  0.38768514  0.61515469     0.96320
Al748      Al  0.09211646  0.34380965  0.59192224     1.55560
O749        O  0.10177576  0.46222870  0.64297055    -0.75420
C750        C  0.17709792  0.32934520  0.58102472     1.00490
C751        C  0.07927960  0.32409024  0.67223832     0.95370
O752        O  0.07489005  0.36021507  0.68051877    -0.80740
C753        C  0.78586273  0.46464031  0.27530721    -0.11670
C754        C  0.80307603  0.43969803  0.29441307    -0.13230
C755        C  0.80322192  0.56236428  0.29498703    -0.11670
C756        C  0.78602388  0.53747017  0.27573557    -0.13230
C757        C  0.79497249  0.30305513  0.44038649    -0.11670
C758        C  0.77915420  0.28267346  0.46531208    -0.13230
C759        C  0.80378622  0.29445496  0.56272235    -0.11670
C760        C  0.78480113  0.27704657  0.53781734    -0.13230
C761        C  0.06047914  0.29537368  0.30482277    -0.11670
C762        C  0.03564751  0.27675644  0.28684633    -0.13230
C763        C  0.93827056  0.29625670  0.30412635    -0.11670
C764        C  0.96287915  0.27783561  0.28571289    -0.13230
C765        C  0.79389653  0.44013381  0.69826185    -0.11670
C766        C  0.77784381  0.46497418  0.71856919    -0.13230
C767        C  0.78366825  0.53746836  0.72390083    -0.11670
C768        C  0.80271054  0.56235924  0.70653375    -0.13230
C769        C  0.72578763  0.46501674  0.21377106    -0.11670
C770        C  0.70660954  0.44016725  0.19641984    -0.13230
C771        C  0.70587183  0.43978496  0.80383205    -0.11670
C772        C  0.72424576  0.46471808  0.78582918    -0.13230
C773        C  0.70746019  0.56258787  0.80537573    -0.11670
C774        C  0.72579260  0.53755028  0.78739073    -0.13230
C775        C  0.72626888  0.53785856  0.21397106    -0.11670
C776        C  0.70734764  0.56289682  0.19669521    -0.13230
C777        C  0.46319016  0.28337106  0.77875835    -0.11670
C778        C  0.43831307  0.30000575  0.79846569    -0.13230
C779        C  0.53593142  0.28662896  0.77636181    -0.11670
C780        C  0.56063898  0.30498488  0.79473474    -0.13230
C781        C  0.28020076  0.46472843  0.77993041    -0.11670
C782        C  0.29800132  0.43964706  0.79821622    -0.13230
C783        C  0.28324408  0.53750752  0.77838507    -0.11670
C784        C  0.30274410  0.56210096  0.79584254    -0.13230
C785        C  0.21473410  0.46562653  0.72457523    -0.11670
C786        C  0.19615686  0.44074688  0.70660504    -0.13230
C787        C  0.21634124  0.53841304  0.72398051    -0.11670
C788        C  0.19806699  0.56326480  0.70579738    -0.13230
C789        C  0.77640685  0.71734354  0.46498595    -0.11670
C790        C  0.79438577  0.69883137  0.44009044    -0.13230
C791        C  0.77632721  0.71694783  0.53777992    -0.11670
C792        C  0.79435099  0.69808997  0.56240670    -0.13230
C793        C  0.43884657  0.20749160  0.69675874    -0.11670
C794        C  0.46359320  0.22627900  0.71460257    -0.13230
C795        C  0.72566601  0.21458943  0.53748728    -0.11670
C796        C  0.70689114  0.19679134  0.56233142    -0.13230
C797        C  0.53636393  0.22698204  0.71438815    -0.11670
C798        C  0.56117797  0.20798663  0.69686396    -0.13230
C799        C  0.72349232  0.78515000  0.53791738    -0.11670
C800        C  0.70552416  0.80406526  0.56251873    -0.13230
C801        C  0.70641495  0.19844143  0.43961826    -0.11670
C802        C  0.72479412  0.21621283  0.46468383    -0.13230
C803        C  0.70571915  0.80421196  0.44046167    -0.11670
C804        C  0.72355817  0.78530385  0.46516562    -0.13230
C805        C  0.46376680  0.77738900  0.28607901    -0.11670
C806        C  0.43871333  0.79555557  0.30412571    -0.13230
C807        C  0.46390154  0.72307872  0.21963694    -0.11670
C808        C  0.43885557  0.70706754  0.19957285    -0.13230
C809        C  0.53663897  0.77668937  0.28697822    -0.11670
C810        C  0.56154167  0.79535886  0.30480894    -0.13230
C811        C  0.53648244  0.71736488  0.22458740    -0.11670
C812        C  0.56126123  0.69817618  0.20716799    -0.13230
C813        C  0.29411721  0.80538448  0.43983596    -0.11670
C814        C  0.27585397  0.78676225  0.46447324    -0.13230
C815        C  0.29397766  0.80496315  0.56209471    -0.11670
C816        C  0.27579641  0.78658115  0.53725351    -0.13230
C817        C  0.22275117  0.71873556  0.46444545    -0.11670
C818        C  0.20495460  0.69963480  0.43985385    -0.13230
C819        C  0.22277074  0.71872094  0.53720721    -0.11670
C820        C  0.20509272  0.69962887  0.56189978    -0.13230
C821        C  0.43862586  0.70708159  0.80275385    -0.11670
C822        C  0.46359277  0.72293933  0.78247653    -0.13230
C823        C  0.46354062  0.77717408  0.71579166    -0.11670
C824        C  0.43872034  0.79560904  0.69767254    -0.13230
C825        C  0.53619845  0.71730302  0.77763338    -0.11670
C826        C  0.56112433  0.69838439  0.79514687    -0.13230
C827        C  0.53633522  0.77612113  0.71494394    -0.11670
C828        C  0.56119463  0.79484810  0.69717688    -0.13230
C829        C  0.29430227  0.06281224  0.30342221    -0.11670
C830        C  0.27826173  0.03799672  0.28308158    -0.13230
C831        C  0.30306746  0.94065663  0.29530839    -0.11670
C832        C  0.28403234  0.96550135  0.27785311    -0.13230
C833        C  0.28204207  0.27865798  0.03777359    -0.11670
C834        C  0.30169797  0.29547046  0.06263707    -0.13230
C835        C  0.27887717  0.28119209  0.96490198    -0.11670
C836        C  0.29656988  0.29921720  0.93949722    -0.13230
C837        C  0.27676459  0.46530886  0.21740299    -0.11670
C838        C  0.29407721  0.44049703  0.19819618    -0.13230
C839        C  0.19570624  0.44067966  0.29432748    -0.11670
C840        C  0.21381624  0.46557389  0.27594238    -0.13230
C841        C  0.30287961  0.56230520  0.20681545    -0.11670
C842        C  0.28241727  0.53772651  0.22306356    -0.13230
C843        C  0.19749681  0.56328368  0.29576054    -0.11670
C844        C  0.21557501  0.53837174  0.27739622    -0.13230
C845        C  0.30337083  0.20794736  0.43957375    -0.11670
C846        C  0.28421574  0.22523106  0.46444431    -0.13230
C847        C  0.22505863  0.28770352  0.46480357    -0.11670
C848        C  0.20637319  0.30558301  0.43994015    -0.13230
C849        C  0.29463943  0.19926114  0.56179314    -0.11670
C850        C  0.27862225  0.21958266  0.53694253    -0.13230
C851        C  0.22432061  0.28617089  0.53762933    -0.11670
C852        C  0.20605357  0.30409949  0.56267814    -0.13230
C853        C  0.46324285  0.28667254  0.22559526    -0.11670
C854        C  0.43835768  0.30493619  0.20735938    -0.13230
C855        C  0.46379701  0.21948703  0.27937207    -0.11670
C856        C  0.43904807  0.19907701  0.29542223    -0.13230
C857        C  0.56075010  0.30563925  0.20743492    -0.11670
C858        C  0.53605173  0.28771736  0.22626054    -0.13230
C859        C  0.53633773  0.22475071  0.28498656    -0.11670
C860        C  0.56116618  0.20729000  0.30410351    -0.13230
C861        C  0.06039712  0.19858475  0.20692741    -0.11670
C862        C  0.03564749  0.21780672  0.22429437    -0.13230
C863        C  0.22422067  0.03824029  0.21619493    -0.11670
C864        C  0.20577662  0.06323199  0.19832941    -0.13230
C865        C  0.19547557  0.20761199  0.06301651    -0.11670
C866        C  0.21395603  0.22582032  0.03830517    -0.13230
C867        C  0.21333587  0.22618053  0.96554913    -0.11670
C868        C  0.19533446  0.20791477  0.94054548    -0.13230
C869        C  0.96317536  0.22324799  0.21894403    -0.11670
C870        C  0.93860485  0.20687595  0.19853671    -0.13230
C871        C  0.22565211  0.96537759  0.21476561    -0.11670
C872        C  0.20717823  0.94031787  0.19695149    -0.13230
C873        C  0.03632751  0.78544751  0.77800754    -0.11670
C874        C  0.06123964  0.80456102  0.79533017    -0.13230
C875        C  0.96368611  0.77996997  0.78282128    -0.11670
C876        C  0.93861227  0.79604685  0.80279792    -0.13230
C877        C  0.03645454  0.72578353  0.71600061    -0.11670
C878        C  0.06132266  0.70715840  0.69809234    -0.13230
C879        C  0.93860493  0.70708046  0.69852794    -0.11670
C880        C  0.96359587  0.72519815  0.71672097    -0.13230
C881        C  0.79384754  0.06235496  0.80484229    -0.11670
C882        C  0.77626598  0.03768887  0.78566676    -0.13230
C883        C  0.78169532  0.96528922  0.77995032    -0.11670
C884        C  0.80230743  0.94075842  0.79606533    -0.13230
C885        C  0.71334138  0.03754875  0.72693623    -0.11670
C886        C  0.69537034  0.06235110  0.70829777    -0.13230
C887        C  0.69695335  0.93990227  0.70698465    -0.11670
C888        C  0.71492569  0.96476914  0.72552685    -0.13230
C889        C  0.77342624  0.78830457  0.03769686    -0.11670
C890        C  0.79247642  0.80556394  0.06268969    -0.13230
C891        C  0.77375707  0.78828723  0.96482014    -0.11670
C892        C  0.79292631  0.80562383  0.93992999    -0.13230
C893        C  0.71271657  0.72729269  0.03748704    -0.11670
C894        C  0.69518383  0.70797574  0.06207925    -0.13230
C895        C  0.71297150  0.72721415  0.96478476    -0.11670
C896        C  0.69552021  0.70787634  0.94016551    -0.13230
C897        C  0.19507782  0.79498775  0.06243712    -0.11670
C898        C  0.21277215  0.77573000  0.03792930    -0.13230
C899        C  0.21290984  0.77597053  0.96523943    -0.11670
C900        C  0.19534889  0.79521353  0.94061361    -0.13230
C901        C  0.29293548  0.69739481  0.06275475    -0.11670
C902        C  0.27390264  0.71494326  0.03791182    -0.13230
C903        C  0.29322565  0.69831995  0.94000471    -0.11670
C904        C  0.27413961  0.71550543  0.96502978    -0.13230
C905        C  0.77540204  0.21704996  0.03731516    -0.11670
C906        C  0.79268983  0.19822179  0.06246093    -0.13230
C907        C  0.78100130  0.22293438  0.96476564    -0.11670
C908        C  0.80140586  0.20714673  0.93986320    -0.13230
C909        C  0.69487965  0.29437306  0.06185685    -0.11670
C910        C  0.71266868  0.27569278  0.03699766    -0.13230
C911        C  0.71412224  0.27695727  0.96424522    -0.11670
C912        C  0.69616858  0.29544970  0.93935569    -0.13230
C913        C  0.80358581  0.06293923  0.20806004    -0.11670
C914        C  0.78501525  0.03817508  0.22614440    -0.13230
C915        C  0.80396395  0.94077303  0.20751641    -0.11670
C916        C  0.78531188  0.96539784  0.22578346    -0.13230
C917        C  0.69719069  0.06248472  0.29588669    -0.11670
C918        C  0.71635487  0.03781499  0.27822846    -0.13230
C919        C  0.71699046  0.96502526  0.27843148    -0.11670
C920        C  0.69817654  0.94025808  0.29627938    -0.13230
C921        C  0.03604974  0.78518498  0.22409083    -0.11670
C922        C  0.06090627  0.80440451  0.20684098    -0.13230
C923        C  0.93871902  0.79593310  0.19868589    -0.11670
C924        C  0.96352309  0.77964613  0.21882456    -0.13230
C925        C  0.06085942  0.70768616  0.30453745    -0.11670
C926        C  0.03597183  0.72615409  0.28652647    -0.13230
C927        C  0.96316877  0.72503471  0.28529801    -0.11670
C928        C  0.93835071  0.70675901  0.30357870    -0.13470
C929        C  0.22622306  0.03777490  0.78865718    -0.11670
C930        C  0.20687233  0.06258133  0.80587828    -0.13230
C931        C  0.22674423  0.96494216  0.78853200    -0.11670
C932        C  0.20765883  0.93995696  0.80573801    -0.13230
C933        C  0.30386173  0.06315072  0.70828415    -0.11670
C934        C  0.28675681  0.03819759  0.72750408    -0.13230
C935        C  0.30404870  0.94052061  0.70771782    -0.11670
C936        C  0.28693652  0.96536733  0.72710510    -0.13230
C937        C  0.03588237  0.21505994  0.77591507    -0.11670
C938        C  0.06069988  0.19716557  0.79463211    -0.13230
C939        C  0.96303405  0.21625856  0.77670746    -0.11670
C940        C  0.93811106  0.19806066  0.79496652    -0.13230
C941        C  0.06091489  0.29561010  0.69814464    -0.11670
C942        C  0.03614339  0.27816445  0.71734308    -0.13230
C943        C  0.93897972  0.30416741  0.70709000    -0.11670
C944        C  0.96365436  0.28366229  0.72314641    -0.13230
loop_ 
_geom_bond_atom_site_label_1 
_geom_bond_atom_site_label_2 
_geom_bond_distance 
_geom_bond_site_symmetry_2 
_ccdc_geom_bond_type 
C1            C2   1.351       .  D
C1          C942   1.452   1_655  S
C1          C944   1.453       .  S
C2          C937   1.452   1_655  S
C2          C939   1.452       .  S
C3            C4   1.350       .  D
C3          C934   1.451       .  S
C3          C936   1.452   1_545  S
C4          C929   1.453       .  S
C4          C931   1.451   1_545  S
C5            C6   1.350       .  D
C5          C926   1.451   1_655  S
C5          C927   1.451       .  S
C6          C921   1.451   1_655  S
C6          C924   1.453       .  S
C7            C8   1.352       .  D
C7          C914   1.451       .  S
C7          C916   1.454   1_545  S
C8          C918   1.453       .  S
C8          C919   1.452   1_545  S
C9           C10   1.349       .  D
C9          C910   1.451       .  S
C9          C911   1.451   1_554  S
C10         C905   1.453       .  S
C10         C907   1.452   1_554  S
C11          C12   1.351       .  D
C11         C902   1.453       .  S
C11         C904   1.452   1_554  S
C12         C898   1.451       .  S
C12         C899   1.452   1_554  S
C13          C14   1.351       .  D
C13         C889   1.452       .  S
C13         C891   1.453   1_554  S
C14         C893   1.452       .  S
C14         C895   1.451   1_554  S
C15          C16   1.350       .  D
C15         C882   1.452       .  S
C15         C883   1.453   1_545  S
C16         C885   1.452       .  S
C16         C888   1.451   1_545  S
C17          C18   1.350       .  D
C17         C877   1.452       .  S
C17         C880   1.451   1_455  S
C18         C873   1.452       .  S
C18         C875   1.453   1_455  S
O19          C34   1.261       .  A
O19         Al27   1.909       .  S
C20          O30   1.259       .  A
C20          O21   1.259       .  A
C20         C167   1.457   1_565  S
O21         Al23   1.890       .  S
O22          C24   1.260       .  A
O22         Al23   1.908       .  S
Al23         O31   1.908       .  S
Al23         O33   1.908       .  S
Al23         O32   1.791       .  S
C24          O37   1.260       .  A
C24          C68   1.465   1_556  S
O25          C35   1.261       .  A
O25         Al27   1.898       .  S
O26          C39   1.263       .  A
O26         Al36   1.915       .  S
Al27         O40   1.899       .  S
Al27         O37   1.896       .  S
Al27         O32   1.788       .  S
O28          C35   1.257       .  A
O28         Al36   1.889       .  S
O29          C38   1.259       .  A
O29         Al36   1.906       .  S
O30         Al36   1.900       .  S
O31          C38   1.262       .  A
O32         Al36   1.794       .  S
O33          C34   1.260       .  A
C34         C900   1.438       .  S
C35          C57   1.454   1_455  S
C38         C932   1.437       .  S
C39          O40   1.258       .  A
C39         C874   1.437       .  S
O41          C56   1.263       .  A
O41         Al49   1.917       .  S
C42          O52   1.258       .  A
C42          O43   1.257       .  A
C42         C101   1.458   1_556  S
O43         Al45   1.885       .  S
O44          C46   1.261       .  A
O44         Al45   1.904       .  S
Al45         O53   1.910       .  S
Al45         O55   1.892       .  S
Al45         O54   1.794       .  S
C46          O59   1.255       .  A
C46         C112   1.460   1_565  S
O47          C57   1.259       .  A
O47         Al49   1.894       .  S
O48          C61   1.263       .  A
O48         Al58   1.916       .  S
Al49         O62   1.891       .  S
Al49         O59   1.890       .  S
Al49         O54   1.797       .  S
O50          C57   1.255       .  A
O50         Al58   1.887       .  S
O51          C60   1.259       .  A
O51         Al58   1.905       .  S
O52         Al58   1.900       .  S
O53          C60   1.261       .  A
O54         Al58   1.801       .  S
O55          C56   1.256       .  A
C56         C884   1.438       .  S
C60         C892   1.439       .  S
C61          O62   1.256       .  A
C61         C876   1.437       .  S
O63          C78   1.260       .  A
O63         Al71   1.908       .  S
C64          O74   1.257       .  A
C64          O65   1.261       .  A
C64          C86   1.456   1_455  S
O65         Al67   1.899       .  S
O66          C68   1.259       .  A
O66         Al67   1.895       .  S
Al67         O75   1.898       .  S
Al67         O77   1.908       .  S
Al67         O76   1.788       .  S
C68          O81   1.260       .  A
O69          C79   1.259       .  A
O69         Al71   1.888       .  S
O70          C83   1.260       .  A
O70         Al80   1.908       .  S
Al71         O84   1.909       .  S
Al71         O81   1.909       .  S
Al71         O76   1.792       .  S
O72          C79   1.258       .  A
O72         Al80   1.896       .  S
O73          C82   1.263       .  A
O73         Al80   1.914       .  S
O74         Al80   1.893       .  S
O75          C82   1.258       .  A
O76         Al80   1.794       .  S
O77          C78   1.261       .  A
C78         C897   1.437       .  S
C79         C189   1.454   1_565  S
C82         C922   1.436       .  S
C83          O84   1.262       .  A
C83         C872   1.438       .  S
O85         C100   1.260       .  A
O85         Al93   1.908       .  S
C86          O96   1.257       .  A
C86          O87   1.261       .  A
O87         Al89   1.899       .  S
O88          C90   1.259       .  A
O88         Al89   1.892       .  S
Al89         O97   1.896       .  S
Al89         O99   1.912       .  S
Al89         O98   1.789       .  S
C90         O103   1.260       .  A
C90         C134   1.462   1_565  S
O91         C101   1.259       .  A
O91         Al93   1.892       .  S
O92         C105   1.260       .  A
O92        Al102   1.907       .  S
Al93        O106   1.908       .  S
Al93        O103   1.906       .  S
Al93         O98   1.792       .  S
O94         C101   1.258       .  A
O94        Al102   1.899       .  S
O95         C104   1.263       .  A
O95        Al102   1.916       .  S
O96        Al102   1.892       .  S
O97         C104   1.257       .  A
O98        Al102   1.795       .  S
O99         C100   1.262       .  A
C100        C915   1.440       .  S
C104        C923   1.437       .  S
C105        O106   1.262       .  A
C105        C890   1.437       .  S
O107        C122   1.262       .  A
O107       Al115   1.912       .  S
C108        O118   1.259       .  A
C108        O109   1.258       .  A
C108        C152   1.461   1_655  S
O109       Al111   1.889       .  S
O110        C112   1.261       .  A
O110       Al111   1.904       .  S
Al111       O119   1.912       .  S
Al111       O121   1.897       .  S
Al111       O120   1.793       .  S
C112        O125   1.256       .  A
O113        C123   1.259       .  A
O113       Al115   1.891       .  S
O114        C127   1.263       .  A
O114       Al124   1.917       .  S
Al115       O128   1.891       .  S
Al115       O125   1.890       .  S
Al115       O120   1.795       .  S
O116        C123   1.254       .  A
O116       Al124   1.881       .  S
O117        C126   1.258       .  A
O117       Al124   1.899       .  S
O118       Al124   1.904       .  S
O119        C126   1.262       .  A
O120       Al124   1.799       .  S
O121        C122   1.257       .  A
C122        C881   1.437       .  S
C123        C130   1.449   1_556  S
C126        C940   1.437       .  S
C127        O128   1.256       .  A
C127        C908   1.437       .  S
O129        C144   1.262       .  A
O129       Al137   1.910       .  S
C130        O140   1.259       .  A
C130        O131   1.255       .  A
O131       Al133   1.882       .  S
O132        C134   1.258       .  A
O132       Al133   1.903       .  S
Al133       O141   1.914       .  S
Al133       O143   1.902       .  S
Al133       O142   1.798       .  S
C134        O147   1.258       .  A
O135        C145   1.261       .  A
O135       Al137   1.900       .  S
O136        C149   1.263       .  A
O136       Al146   1.917       .  S
Al137       O150   1.896       .  S
Al137       O147   1.892       .  S
Al137       O142   1.792       .  S
O138        C145   1.256       .  A
O138       Al146   1.891       .  S
O139        C148   1.257       .  A
O139       Al146   1.896       .  S
O140       Al146   1.892       .  S
O141        C148   1.263       .  A
O142       Al146   1.795       .  S
O143        C144   1.258       .  A
C144        C913   1.437       .  S
C145        C178   1.457   1_655  S
C148        C906   1.437       .  S
C149        O150   1.257       .  A
C149        C870   1.439       .  S
O151        C166   1.260       .  A
O151       Al159   1.906       .  S
C152        O162   1.260       .  A
C152        O153   1.260       .  A
O153       Al155   1.902       .  S
O154        C156   1.261       .  A
O154       Al155   1.898       .  S
Al155       O163   1.912       .  S
Al155       O165   1.908       .  S
Al155       O164   1.788       .  S
C156        O169   1.260       .  A
C156        C174   1.464   1_556  S
O157        C167   1.259       .  A
O157       Al159   1.889       .  S
O158        C171   1.261       .  A
O158       Al168   1.912       .  S
Al159       O172   1.910       .  S
Al159       O169   1.908       .  S
Al159       O164   1.789       .  S
O160        C167   1.260       .  A
O160       Al168   1.902       .  S
O161        C170   1.262       .  A
O161       Al168   1.909       .  S
O162       Al168   1.897       .  S
O163        C170   1.261       .  A
O164       Al168   1.789       .  S
O165        C166   1.262       .  A
C166        C868   1.435       .  S
C170        C938   1.439       .  S
C171        O172   1.262       .  A
C171        C930   1.438       .  S
O173        C188   1.262       .  A
O173       Al181   1.912       .  S
C174        O184   1.260       .  A
C174        O175   1.259       .  A
O175       Al177   1.892       .  S
O176        C178   1.261       .  A
O176       Al177   1.902       .  S
Al177       O185   1.911       .  S
Al177       O187   1.898       .  S
Al177       O186   1.789       .  S
C178        O191   1.257       .  A
O179        C189   1.258       .  A
O179       Al181   1.897       .  S
O180        C193   1.262       .  A
O180       Al190   1.910       .  S
Al181       O194   1.903       .  S
Al181       O191   1.891       .  S
Al181       O186   1.794       .  S
O182        C189   1.257       .  A
O182       Al190   1.885       .  S
O183        C192   1.258       .  A
O183       Al190   1.902       .  S
O184       Al190   1.910       .  S
O185        C192   1.262       .  A
O186       Al190   1.793       .  S
O187        C188   1.258       .  A
C188        C861   1.436       .  S
C192        C865   1.436       .  S
C193        O194   1.259       .  A
C193        C864   1.436       .  S
C195        C196   1.351       .  D
C195        C855   1.453       .  S
C195        C859   1.453       .  S
C196        C853   1.452       .  S
C196        C858   1.452       .  S
C197        C198   1.350       .  D
C197        C847   1.453       .  S
C197        C851   1.450       .  S
C198        C846   1.451       .  S
C198        C850   1.454       .  S
C199        C200   1.350       .  D
C199        C840   1.452       .  S
C199        C844   1.451       .  S
C200        C837   1.451       .  S
C200        C842   1.453       .  S
C201        C202   1.349       .  D
C201        C866   1.450       .  S
C201        C867   1.451   1_554  S
C202        C833   1.453       .  S
C202        C835   1.451   1_554  S
C203        C204   1.350       .  D
C203        C863   1.451       .  S
C203        C871   1.453   1_545  S
C204        C830   1.453       .  S
C204        C832   1.451   1_545  S
C205        C206   1.350       .  D
C205        C823   1.451       .  S
C205        C827   1.451       .  S
C206        C822   1.452       .  S
C206        C825   1.452       .  S
C207        C208   1.352       .  D
C207        C817   1.452       .  S
C207        C819   1.453       .  S
C208        C814   1.453       .  S
C208        C816   1.452       .  S
C209        C210   1.350       .  D
C209        C805   1.451       .  S
C209        C809   1.452       .  S
C210        C807   1.453       .  S
C210        C811   1.452       .  S
O211        C226   1.262       .  A
O211       Al219   1.912       .  S
C212        O222   1.258       .  A
C212        O213   1.259       .  A
C212        C271   1.458       .  S
O213       Al215   1.890       .  S
O214        C216   1.260       .  A
O214       Al215   1.910       .  S
Al215       O223   1.911       .  S
Al215       O225   1.907       .  S
Al215       O224   1.792       .  S
C216        O229   1.259       .  A
C216        C366   1.464       .  S
O217        C227   1.261       .  A
O217       Al219   1.901       .  S
O218        C231   1.262       .  A
O218       Al228   1.913       .  S
Al219       O232   1.899       .  S
Al219       O229   1.893       .  S
Al219       O224   1.790       .  S
O220        C227   1.256       .  A
O220       Al228   1.885       .  S
O221        C230   1.258       .  A
O221       Al228   1.900       .  S
O222       Al228   1.901       .  S
O223        C230   1.262       .  A
O224       Al228   1.795       .  S
O225        C226   1.259       .  A
C226        C813   1.439       .  S
C227        C249   1.454   1_565  S
C230        C806   1.435       .  S
C231        O232   1.258       .  A
C231        C831   1.436       .  S
O233        C248   1.262       .  A
O233       Al241   1.916       .  S
C234        O244   1.258       .  A
C234        O235   1.254       .  A
C234        C359   1.455       .  S
O235       Al237   1.885       .  S
O236        C238   1.259       .  A
O236       Al237   1.893       .  S
Al237       O245   1.912       .  S
Al237       O247   1.889       .  S
Al237       O246   1.800       .  S
C238        O251   1.254       .  A
C238        C293   1.455       .  S
O239        C249   1.259       .  A
O239       Al241   1.893       .  S
O240        C253   1.262       .  A
O240       Al250   1.916       .  S
Al241       O254   1.889       .  S
Al241       O251   1.885       .  S
Al241       O246   1.801       .  S
O242        C249   1.254       .  A
O242       Al250   1.885       .  S
O243        C252   1.256       .  A
O243       Al250   1.891       .  S
O244       Al250   1.894       .  S
O245        C252   1.261       .  A
O246       Al250   1.802       .  S
O247        C248   1.255       .  A
C248        C856   1.437       .  S
C252        C845   1.436       .  S
C253        O254   1.255       .  A
C253        C829   1.438       .  S
O255        C270   1.259       .  A
O255       Al263   1.905       .  S
C256        O266   1.260       .  A
C256        O257   1.260       .  A
C256        C282   1.463   1_565  S
O257       Al259   1.909       .  S
O258        C260   1.259       .  A
O258       Al259   1.887       .  S
Al259       O267   1.905       .  S
Al259       O269   1.913       .  S
Al259       O268   1.790       .  S
C260        O273   1.260       .  A
C260        C315   1.459       .  S
O261        C271   1.258       .  A
O261       Al263   1.887       .  S
O262        C275   1.260       .  A
O262       Al272   1.910       .  S
Al263       O276   1.909       .  S
Al263       O273   1.907       .  S
Al263       O268   1.791       .  S
O264        C271   1.260       .  A
O264       Al272   1.905       .  S
O265        C274   1.262       .  A
O265       Al272   1.912       .  S
O266       Al272   1.894       .  S
O267        C274   1.259       .  A
O268       Al272   1.790       .  S
O269        C270   1.263       .  A
C270        C803   1.438       .  S
C274        C920   1.438       .  S
C275        O276   1.262       .  A
C275        C810   1.438       .  S
O277        C292   1.263       .  A
O277       Al285   1.915       .  S
C278        O288   1.259       .  A
C278        O279   1.258       .  A
C278        C337   1.458       .  S
O279       Al281   1.887       .  S
O280        C282   1.260       .  A
O280       Al281   1.908       .  S
Al281       O289   1.909       .  S
Al281       O291   1.903       .  S
Al281       O290   1.793       .  S
C282        O295   1.259       .  A
O283        C293   1.261       .  A
O283       Al285   1.902       .  S
O284        C297   1.263       .  A
O284       Al294   1.915       .  S
Al285       O298   1.900       .  S
Al285       O295   1.893       .  S
Al285       O290   1.790       .  S
O286        C293   1.255       .  A
O286       Al294   1.884       .  S
O287        C296   1.258       .  A
O287       Al294   1.901       .  S
O288       Al294   1.902       .  S
O289        C296   1.262       .  A
O290       Al294   1.795       .  S
O291        C292   1.258       .  A
C292        C917   1.439       .  S
C296        C801   1.434       .  S
C297        O298   1.258       .  A
C297        C860   1.438       .  S
O299        C314   1.261       .  A
O299       Al307   1.907       .  S
C300        O310   1.260       .  A
C300        O301   1.259       .  A
C300        C326   1.461   1_565  S
O301       Al303   1.891       .  S
O302        C304   1.260       .  A
O302       Al303   1.907       .  S
Al303       O311   1.911       .  S
Al303       O313   1.910       .  S
Al303       O312   1.789       .  S
C304        O317   1.259       .  A
C304        C370   1.460       .  S
O305        C315   1.260       .  A
O305       Al307   1.906       .  S
O306        C319   1.263       .  A
O306       Al316   1.913       .  S
Al307       O320   1.906       .  S
Al307       O317   1.890       .  S
Al307       O312   1.789       .  S
O308        C315   1.259       .  A
O308       Al316   1.889       .  S
O309        C318   1.259       .  A
O309       Al316   1.906       .  S
O310       Al316   1.907       .  S
O311        C318   1.263       .  A
O312       Al316   1.789       .  S
O313        C314   1.260       .  A
C314        C828   1.437       .  S
C318        C887   1.437       .  S
C319        O320   1.259       .  A
C319        C800   1.438       .  S
O321        C336   1.261       .  A
O321       Al329   1.910       .  S
C322        O332   1.261       .  A
C322        O323   1.260       .  A
C322        C348   1.463       .  S
O323       Al325   1.907       .  S
O324        C326   1.260       .  A
O324       Al325   1.894       .  S
Al325       O333   1.911       .  S
Al325       O335   1.909       .  S
Al325       O334   1.788       .  S
C326        O339   1.260       .  A
O327        C337   1.260       .  A
O327       Al329   1.893       .  S
O328        C341   1.261       .  A
O328       Al338   1.912       .  S
Al329       O342   1.909       .  S
Al329       O339   1.905       .  S
Al329       O334   1.788       .  S
O330        C337   1.259       .  A
O330       Al338   1.901       .  S
O331        C340   1.261       .  A
O331       Al338   1.907       .  S
O332       Al338   1.898       .  S
O333        C340   1.261       .  A
O334       Al338   1.788       .  S
O335        C336   1.262       .  A
C336        C886   1.438       .  S
C340        C798   1.436       .  S
C341        O342   1.262       .  A
C341        C796   1.439       .  S
O343        C358   1.262       .  A
O343       Al351   1.909       .  S
C344        O354   1.258       .  A
C344        O345   1.258       .  A
C344        C381   1.457   1_545  S
O345       Al347   1.888       .  S
O346        C348   1.260       .  A
O346       Al347   1.908       .  S
Al347       O355   1.907       .  S
Al347       O357   1.905       .  S
Al347       O356   1.792       .  S
C348        O361   1.259       .  A
O349        C359   1.261       .  A
O349       Al351   1.900       .  S
O350        C363   1.264       .  A
O350       Al360   1.918       .  S
Al351       O364   1.895       .  S
Al351       O361   1.892       .  S
Al351       O356   1.788       .  S
O352        C359   1.257       .  A
O352       Al360   1.889       .  S
O353        C362   1.260       .  A
O353       Al360   1.908       .  S
O354       Al360   1.901       .  S
O355        C362   1.261       .  A
O356       Al360   1.794       .  S
O357        C358   1.259       .  A
C358        C793   1.436       .  S
C362        C933   1.437       .  S
C363        O364   1.257       .  A
C363        C849   1.438       .  S
O365        C380   1.259       .  A
O365       Al373   1.905       .  S
C366        O376   1.261       .  A
C366        O367   1.260       .  A
O367       Al369   1.909       .  S
O368        C370   1.259       .  A
O368       Al369   1.891       .  S
Al369       O377   1.908       .  S
Al369       O379   1.912       .  S
Al369       O378   1.788       .  S
C370        O383   1.260       .  A
O371        C381   1.259       .  A
O371       Al373   1.889       .  S
O372        C385   1.261       .  A
O372       Al382   1.913       .  S
Al373       O386   1.908       .  S
Al373       O383   1.906       .  S
Al373       O378   1.790       .  S
O374        C381   1.259       .  A
O374       Al382   1.903       .  S
O375        C384   1.262       .  A
O375       Al382   1.910       .  S
O376       Al382   1.897       .  S
O377        C384   1.260       .  A
O378       Al382   1.789       .  S
O379        C380   1.263       .  A
C380        C824   1.436       .  S
C384        C815   1.438       .  S
C385        O386   1.262       .  A
C385        C935   1.438       .  S
C387        C388   1.352       .  D
C387        C799   1.452       .  S
C387        C804   1.452       .  S
C388        C789   1.452       .  S
C388        C791   1.453       .  S
C389        C390   1.350       .  D
C389        C785   1.454       .  S
C389        C787   1.449       .  S
C390        C781   1.449       .  S
C390        C783   1.455       .  S
C391        C392   1.349       .  D
C391        C777   1.451       .  S
C391        C779   1.451       .  S
C392        C794   1.450       .  S
C392        C797   1.450       .  S
O393        C408   1.261       .  A
O393       Al401   1.908       .  S
C394        O404   1.259       .  A
C394        O395   1.259       .  A
C394        C504   1.458       .  S
O395       Al397   1.891       .  S
O396        C398   1.260       .  A
O396       Al397   1.908       .  S
Al397       O405   1.908       .  S
Al397       O407   1.909       .  S
Al397       O406   1.791       .  S
C398        O411   1.260       .  A
C398        C420   1.465   1_554  S
O399        C409   1.261       .  A
O399       Al401   1.897       .  S
O400        C413   1.263       .  A
O400       Al410   1.915       .  S
Al401       O414   1.900       .  S
Al401       O411   1.897       .  S
Al401       O406   1.788       .  S
O402        C409   1.256       .  A
O402       Al410   1.887       .  S
O403        C412   1.259       .  A
O403       Al410   1.905       .  S
O404       Al410   1.901       .  S
O405        C412   1.262       .  A
O406       Al410   1.794       .  S
O407        C408   1.260       .  A
C408        C894   1.438       .  S
C409        C453   1.452       .  S
C412        C776   1.436       .  S
C413        O414   1.258       .  A
C413        C812   1.437       .  S
O415        C430   1.260       .  A
O415       Al423   1.908       .  S
C416        O426   1.257       .  A
C416        O417   1.261       .  A
C416        C460   1.455       .  S
O417       Al419   1.899       .  S
O418        C420   1.260       .  A
O418       Al419   1.897       .  S
Al419       O427   1.900       .  S
Al419       O429   1.908       .  S
Al419       O428   1.788       .  S
C420        O433   1.260       .  A
O421        C431   1.259       .  A
O421       Al423   1.888       .  S
O422        C435   1.260       .  A
O422       Al432   1.907       .  S
Al423       O436   1.910       .  S
Al423       O433   1.909       .  S
Al423       O428   1.792       .  S
O424        C431   1.258       .  A
O424       Al432   1.898       .  S
O425        C434   1.263       .  A
O425       Al432   1.914       .  S
O426       Al432   1.891       .  S
O427        C434   1.258       .  A
O428       Al432   1.794       .  S
O429        C430   1.261       .  A
C430        C896   1.437       .  S
C431        C497   1.456       .  S
C434        C826   1.438       .  S
C435        O436   1.262       .  A
C435        C773   1.438       .  S
O437        C452   1.263       .  A
O437       Al445   1.917       .  S
C438        O448   1.258       .  A
C438        O439   1.258       .  A
C438        C475   1.460   1_554  S
O439       Al441   1.889       .  S
O440        C442   1.261       .  A
O440       Al441   1.904       .  S
Al441       O449   1.910       .  S
Al441       O451   1.894       .  S
Al441       O450   1.793       .  S
C442        O455   1.255       .  A
C442        C563   1.460       .  S
O443        C453   1.259       .  A
O443       Al445   1.893       .  S
O444        C457   1.263       .  A
O444       Al454   1.916       .  S
Al445       O458   1.892       .  S
Al445       O455   1.889       .  S
Al445       O450   1.796       .  S
O446        C453   1.256       .  A
O446       Al454   1.888       .  S
O447        C456   1.259       .  A
O447       Al454   1.905       .  S
O448       Al454   1.900       .  S
O449        C456   1.261       .  A
O450       Al454   1.800       .  S
O451        C452   1.257       .  A
C452        C841   1.438       .  S
C456        C901   1.439       .  S
C457        O458   1.256       .  A
C457        C808   1.437       .  S
O459        C474   1.257       .  A
O459       Al467   1.901       .  S
C460        O470   1.256       .  A
C460        O461   1.260       .  A
O461       Al463   1.897       .  S
O462        C464   1.256       .  A
O462       Al463   1.885       .  S
Al463       O471   1.890       .  S
Al463       O473   1.916       .  S
Al463       O472   1.795       .  S
C464        O477   1.260       .  A
C464        C526   1.459       .  S
O465        C475   1.258       .  A
O465       Al467   1.888       .  S
O466        C479   1.259       .  A
O466       Al476   1.905       .  S
Al467       O480   1.908       .  S
Al467       O477   1.903       .  S
Al467       O472   1.795       .  S
O468        C475   1.258       .  A
O468       Al476   1.901       .  S
O469        C478   1.263       .  A
O469       Al476   1.917       .  S
O470       Al476   1.888       .  S
O471        C478   1.256       .  A
O472       Al476   1.800       .  S
O473        C474   1.262       .  A
C474        C784   1.441       .  S
C478        C821   1.437       .  S
C479        O480   1.261       .  A
C479        C903   1.438       .  S
O481        C496   1.262       .  A
O481       Al489   1.910       .  S
C482        O492   1.261       .  A
C482        O483   1.259       .  A
C482        C519   1.462   1_556  S
O483       Al485   1.892       .  S
O484        C486   1.261       .  A
O484       Al485   1.903       .  S
Al485       O493   1.911       .  S
Al485       O495   1.904       .  S
Al485       O494   1.789       .  S
C486        O499   1.258       .  A
C486        C530   1.458       .  S
O487        C497   1.259       .  A
O487       Al489   1.900       .  S
O488        C501   1.262       .  A
O488       Al498   1.910       .  S
Al489       O502   1.903       .  S
Al489       O499   1.889       .  S
Al489       O494   1.791       .  S
O490        C497   1.258       .  A
O490       Al498   1.887       .  S
O491        C500   1.259       .  A
O491       Al498   1.903       .  S
O492       Al498   1.909       .  S
O493        C500   1.262       .  A
O494       Al498   1.791       .  S
O495        C496   1.259       .  A
C496        C780   1.437       .  S
C500        C912   1.436       .  S
C501        O502   1.259       .  A
C501        C771   1.436       .  S
O503        C518   1.261       .  A
O503       Al511   1.912       .  S
C504        O514   1.260       .  A
C504        O505   1.260       .  A
O505       Al507   1.902       .  S
O506        C508   1.260       .  A
O506       Al507   1.897       .  S
Al507       O515   1.911       .  S
Al507       O517   1.908       .  S
Al507       O516   1.788       .  S
C508        O521   1.260       .  A
C508        C552   1.461       .  S
O509        C519   1.261       .  A
O509       Al511   1.897       .  S
O510        C523   1.260       .  A
O510       Al520   1.909       .  S
Al511       O524   1.907       .  S
Al511       O521   1.904       .  S
Al511       O516   1.788       .  S
O512        C519   1.260       .  A
O512       Al520   1.907       .  S
O513        C522   1.262       .  A
O513       Al520   1.910       .  S
O514       Al520   1.892       .  S
O515        C522   1.260       .  A
O516       Al520   1.789       .  S
O517        C518   1.262       .  A
C518        C857   1.438       .  S
C522        C770   1.438       .  S
C523        O524   1.261       .  A
C523        C909   1.436       .  S
O525        C540   1.256       .  A
O525       Al533   1.897       .  S
C526        O536   1.251       .  A
C526        O527   1.254       .  A
O527       Al529   1.882       .  S
O528        C530   1.254       .  A
O528       Al529   1.879       .  S
Al529       O537   1.888       .  S
Al529       O539   1.887       .  S
Al529       O538   1.815       .  S
C530        O543   1.253       .  A
O531        C541   1.253       .  A
O531       Al533   1.873       .  S
O532        C545   1.255       .  A
O532       Al542   1.893       .  S
Al533       O546   1.889       .  S
Al533       O543   1.886       .  S
Al533       O538   1.819       .  S
O534        C541   1.250       .  A
O534       Al542   1.872       .  S
O535        C544   1.255       .  A
O535       Al542   1.891       .  S
O536       Al542   1.881       .  S
O537        C544   1.254       .  A
O538       Al542   1.821       .  S
O539        C540   1.254       .  A
C540        C778   1.436       .  S
C541        C548   1.450   1_556  S
C544        C782   1.433       .  S
C545        O546   1.255       .  A
C545        C836   1.435       .  S
O547        C562   1.262       .  A
O547       Al555   1.912       .  S
C548        O558   1.258       .  A
C548        O549   1.255       .  A
O549       Al551   1.879       .  S
O550        C552   1.259       .  A
O550       Al551   1.906       .  S
Al551       O559   1.916       .  S
Al551       O561   1.900       .  S
Al551       O560   1.797       .  S
C552        O565   1.258       .  A
O553        C563   1.261       .  A
O553       Al555   1.904       .  S
O554        C567   1.262       .  A
O554       Al564   1.912       .  S
Al555       O568   1.897       .  S
Al555       O565   1.889       .  S
Al555       O560   1.791       .  S
O556        C563   1.256       .  A
O556       Al564   1.891       .  S
O557        C566   1.257       .  A
O557       Al564   1.898       .  S
O558       Al564   1.892       .  S
O559        C566   1.263       .  A
O560       Al564   1.795       .  S
O561        C562   1.258       .  A
C562        C854   1.437       .  S
C566        C834   1.438       .  S
C567        O568   1.257       .  A
C567        C838   1.436       .  S
C569        C570   1.350       .  D
C569        C772   1.450       .  S
C569        C774   1.453       .  S
C570        C766   1.454       .  S
C570        C767   1.451       .  S
C571        C572   1.350       .  D
C571        C862   1.451   1_655  S
C571        C869   1.454       .  S
C572        C762   1.452   1_655  S
C572        C764   1.450       .  S
C573        C574   1.349       .  D
C573        C795   1.453       .  S
C573        C802   1.449       .  S
C574        C758   1.454       .  S
C574        C760   1.451       .  S
C575        C576   1.350       .  D
C575        C769   1.453       .  S
C575        C775   1.451       .  S
C576        C753   1.451       .  S
C576        C756   1.452       .  S
O577        C592   1.261       .  A
O577       Al585   1.908       .  S
C578        O588   1.261       .  A
C578        O579   1.259       .  A
C578        C692   1.462       .  S
O579       Al581   1.891       .  S
O580        C582   1.260       .  A
O580       Al581   1.909       .  S
Al581       O589   1.912       .  S
Al581       O591   1.909       .  S
Al581       O590   1.790       .  S
C582        O595   1.259       .  A
C582        C604   1.461   1_455  S
O583        C593   1.260       .  A
O583       Al585   1.906       .  S
O584        C597   1.263       .  A
O584       Al594   1.914       .  S
Al585       O598   1.905       .  S
Al585       O595   1.889       .  S
Al585       O590   1.790       .  S
O586        C593   1.259       .  A
O586       Al594   1.888       .  S
O587        C596   1.259       .  A
O587       Al594   1.905       .  S
O588       Al594   1.909       .  S
O589        C596   1.263       .  A
O590       Al594   1.790       .  S
O591        C592   1.260       .  A
C592        C925   1.437       .  S
C593        C644   1.459       .  S
C596        C843   1.437       .  S
C597        O598   1.259       .  A
C597        C818   1.438       .  S
O599        C614   1.259       .  A
O599       Al607   1.903       .  S
C600        O610   1.260       .  A
C600        O601   1.261       .  A
C600        C626   1.464       .  S
O601       Al603   1.910       .  S
O602        C604   1.259       .  A
O602       Al603   1.890       .  S
Al603       O611   1.906       .  S
Al603       O613   1.912       .  S
Al603       O612   1.789       .  S
C604        O617   1.260       .  A
O605        C615   1.258       .  A
O605       Al607   1.886       .  S
O606        C619   1.260       .  A
O606       Al616   1.911       .  S
Al607       O620   1.908       .  S
Al607       O617   1.908       .  S
Al607       O612   1.791       .  S
O608        C615   1.260       .  A
O608       Al616   1.904       .  S
O609        C618   1.262       .  A
O609       Al616   1.911       .  S
O610       Al616   1.895       .  S
O611        C618   1.259       .  A
O612       Al616   1.790       .  S
O613        C614   1.263       .  A
C614        C928   1.436       .  S
C615        C666   1.458       .  S
C618        C790   1.438       .  S
C619        O620   1.262       .  A
C619        C755   1.438       .  S
O621        C636   1.262       .  A
O621       Al629   1.913       .  S
C622        O632   1.258       .  A
C622        O623   1.259       .  A
C622        C648   1.458   1_655  S
O623       Al625   1.889       .  S
O624        C626   1.260       .  A
O624       Al625   1.910       .  S
Al625       O633   1.911       .  S
Al625       O635   1.906       .  S
Al625       O634   1.792       .  S
C626        O639   1.259       .  A
O627        C637   1.261       .  A
O627       Al629   1.903       .  S
O628        C641   1.262       .  A
O628       Al638   1.912       .  S
Al629       O642   1.898       .  S
Al629       O639   1.892       .  S
Al629       O634   1.790       .  S
O630        C637   1.256       .  A
O630       Al638   1.884       .  S
O631        C640   1.258       .  A
O631       Al638   1.900       .  S
O632       Al638   1.901       .  S
O633        C640   1.262       .  A
O634       Al638   1.795       .  S
O635        C636   1.259       .  A
C636        C792   1.439       .  S
C637        C725   1.455       .  S
C640        C879   1.436       .  S
C641        O642   1.258       .  A
C641        C768   1.436       .  S
O643        C658   1.260       .  A
O643       Al651   1.909       .  S
C644        O654   1.259       .  A
C644        O645   1.260       .  A
O645       Al647   1.907       .  S
O646        C648   1.258       .  A
O646       Al647   1.885       .  S
Al647       O655   1.902       .  S
Al647       O657   1.909       .  S
Al647       O656   1.792       .  S
C648        O661   1.260       .  A
O649        C659   1.259       .  A
O649       Al651   1.893       .  S
O650        C663   1.259       .  A
O650       Al660   1.903       .  S
Al651       O664   1.909       .  S
Al651       O661   1.905       .  S
Al651       O656   1.791       .  S
O652        C659   1.261       .  A
O652       Al660   1.912       .  S
O653        C662   1.263       .  A
O653       Al660   1.914       .  S
O654       Al660   1.885       .  S
O655        C662   1.258       .  A
O656       Al660   1.791       .  S
O657        C658   1.262       .  A
C658        C878   1.438       .  S
C659        C736   1.465       .  S
C662        C820   1.439       .  S
C663        O664   1.262       .  A
C663        C788   1.435       .  S
O665        C680   1.262       .  A
O665       Al673   1.911       .  S
C666        O676   1.258       .  A
C666        O667   1.258       .  A
O667       Al669   1.885       .  S
O668        C670   1.260       .  A
O668       Al669   1.910       .  S
Al669       O677   1.907       .  S
Al669       O679   1.903       .  S
Al669       O678   1.793       .  S
C670        O683   1.258       .  A
C670        C688   1.463   1_655  S
O671        C681   1.262       .  A
O671       Al673   1.901       .  S
O672        C685   1.263       .  A
O672       Al682   1.918       .  S
Al673       O686   1.894       .  S
Al673       O683   1.891       .  S
Al673       O678   1.789       .  S
O674        C681   1.256       .  A
O674       Al682   1.887       .  S
O675        C684   1.259       .  A
O675       Al682   1.906       .  S
O676       Al682   1.903       .  S
O677        C684   1.261       .  A
O678       Al682   1.796       .  S
O679        C680   1.258       .  A
C680        C763   1.436       .  S
C681        C710   1.455       .  S
C684        C754   1.436       .  S
C685        O686   1.257       .  A
C685        C757   1.438       .  S
O687        C702   1.260       .  A
O687       Al695   1.909       .  S
C688        O698   1.261       .  A
C688        O689   1.260       .  A
O689       Al691   1.908       .  S
O690        C692   1.260       .  A
O690       Al691   1.894       .  S
Al691       O699   1.911       .  S
Al691       O701   1.910       .  S
Al691       O700   1.789       .  S
C692        O705   1.260       .  A
O693        C703   1.260       .  A
O693       Al695   1.891       .  S
O694        C707   1.261       .  A
O694       Al704   1.912       .  S
Al695       O708   1.910       .  S
Al695       O705   1.907       .  S
Al695       O700   1.790       .  S
O696        C703   1.260       .  A
O696       Al704   1.902       .  S
O697        C706   1.262       .  A
O697       Al704   1.909       .  S
O698       Al704   1.897       .  S
O699        C706   1.261       .  A
O700       Al704   1.789       .  S
O701        C702   1.262       .  A
C702        C839   1.438       .  S
C703        C732   1.458       .  S
C706        C761   1.438       .  S
C707        O708   1.262       .  A
C707        C848   1.439       .  S
O709        C724   1.263       .  A
O709       Al717   1.917       .  S
C710        O720   1.259       .  A
C710        O711   1.254       .  A
O711       Al713   1.887       .  S
O712        C714   1.259       .  A
O712       Al713   1.892       .  S
Al713       O721   1.911       .  S
Al713       O723   1.890       .  S
Al713       O722   1.799       .  S
C714        O727   1.254       .  A
C714        C747   1.454   1_655  S
O715        C725   1.259       .  A
O715       Al717   1.894       .  S
O716        C729   1.262       .  A
O716       Al726   1.916       .  S
Al717       O730   1.890       .  S
Al717       O727   1.886       .  S
Al717       O722   1.799       .  S
O718        C725   1.255       .  A
O718       Al726   1.887       .  S
O719        C728   1.256       .  A
O719       Al726   1.893       .  S
O720       Al726   1.894       .  S
O721        C728   1.261       .  A
O722       Al726   1.800       .  S
O723        C724   1.255       .  A
C724        C943   1.438       .  S
C728        C759   1.436       .  S
C729        O730   1.256       .  A
C729        C765   1.438       .  S
O731        C746   1.262       .  A
O731       Al739   1.912       .  S
C732        O742   1.259       .  A
C732        O733   1.258       .  A
O733       Al735   1.889       .  S
O734        C736   1.260       .  A
O734       Al735   1.910       .  S
Al735       O743   1.910       .  S
Al735       O745   1.905       .  S
Al735       O744   1.792       .  S
C736        O749   1.260       .  A
O737        C747   1.261       .  A
O737       Al739   1.900       .  S
O738        C751   1.263       .  A
O738       Al748   1.914       .  S
Al739       O752   1.901       .  S
Al739       O749   1.895       .  S
Al739       O744   1.789       .  S
O740        C747   1.256       .  A
O740       Al748   1.884       .  S
O741        C750   1.258       .  A
O741       Al748   1.901       .  S
O742       Al748   1.902       .  S
O743        C750   1.262       .  A
O744       Al748   1.795       .  S
O745        C746   1.259       .  A
C746        C786   1.439       .  S
C750        C852   1.435       .  S
C751        O752   1.258       .  A
C751        C941   1.438       .  S
C753        C754   1.208       .  T
C755        C756   1.209       .  T
C757        C758   1.209       .  T
C759        C760   1.208       .  T
C761        C762   1.209       .  T
C763        C764   1.208       .  T
C765        C766   1.209       .  T
C767        C768   1.208       .  T
C769        C770   1.209       .  T
C771        C772   1.208       .  T
C773        C774   1.209       .  T
C775        C776   1.208       .  T
C777        C778   1.208       .  T
C779        C780   1.208       .  T
C781        C782   1.206       .  T
C783        C784   1.211       .  T
C785        C786   1.209       .  T
C787        C788   1.207       .  T
C789        C790   1.209       .  T
C791        C792   1.209       .  T
C793        C794   1.208       .  T
C795        C796   1.209       .  T
C797        C798   1.208       .  T
C799        C800   1.209       .  T
C801        C802   1.207       .  T
C803        C804   1.209       .  T
C805        C806   1.208       .  T
C807        C808   1.209       .  T
C809        C810   1.209       .  T
C811        C812   1.209       .  T
C813        C814   1.210       .  T
C815        C816   1.209       .  T
C817        C818   1.209       .  T
C819        C820   1.209       .  T
C821        C822   1.209       .  T
C823        C824   1.208       .  T
C825        C826   1.209       .  T
C827        C828   1.208       .  T
C829        C830   1.209       .  T
C831        C832   1.208       .  T
C833        C834   1.209       .  T
C835        C836   1.208       .  T
C837        C838   1.208       .  T
C839        C840   1.209       .  T
C841        C842   1.209       .  T
C843        C844   1.208       .  T
C845        C846   1.208       .  T
C847        C848   1.209       .  T
C849        C850   1.210       .  T
C851        C852   1.207       .  T
C853        C854   1.209       .  T
C855        C856   1.209       .  T
C857        C858   1.209       .  T
C859        C860   1.209       .  T
C861        C862   1.208       .  T
C863        C864   1.208       .  T
C865        C866   1.208       .  T
C867        C868   1.207       .  T
C869        C870   1.210       .  T
C871        C872   1.209       .  T
C873        C874   1.209       .  T
C875        C876   1.209       .  T
C877        C878   1.209       .  T
C879        C880   1.208       .  T
C881        C882   1.209       .  T
C883        C884   1.209       .  T
C885        C886   1.209       .  T
C887        C888   1.208       .  T
C889        C890   1.209       .  T
C891        C892   1.210       .  T
C893        C894   1.209       .  T
C895        C896   1.208       .  T
C897        C898   1.208       .  T
C899        C900   1.209       .  T
C901        C902   1.210       .  T
C903        C904   1.209       .  T
C905        C906   1.209       .  T
C907        C908   1.209       .  T
C909        C910   1.208       .  T
C911        C912   1.208       .  T
C913        C914   1.208       .  T
C915        C916   1.210       .  T
C917        C918   1.210       .  T
C919        C920   1.209       .  T
C921        C922   1.208       .  T
C923        C924   1.209       .  T
C925        C926   1.208       .  T
C927        C928   1.208       .  T
C929        C930   1.209       .  T
C931        C932   1.208       .  T
C933        C934   1.208       .  T
C935        C936   1.209       .  T
C937        C938   1.209       .  T
C939        C940   1.209       .  T
C941        C942   1.209       .  T
C943        C944   1.209       .  T
