geometry optimzed in LAMMPS
_audit_creation_date              2020-11-30 
_audit_creation_method            'lammps2cif' 
_symmetry_space_group_name_H-M    'P1' 
_symmetry_Int_Tables_number       1 
_symmetry_cell_setting            triclinic 
loop_ 
_symmetry_equiv_pos_as_xyz 
  x,y,z 
_cell_length_a                    41.15760013871754 
_cell_length_b                    41.216898206451994 
_cell_length_c                    42.937036476781316 
_cell_angle_alpha                 90.18643196404435 
_cell_angle_beta                  89.44276860319289 
_cell_angle_gamma                 119.95021529325074 
loop_ 
_atom_site_label 
_atom_site_type_symbol 
_atom_site_fract_x 
_atom_site_fract_y 
_atom_site_fract_z 
_atom_site_charge 
C1          C  0.49455222  0.71790424  0.09938093     0.03010
C2          C  0.49553513  0.71825795  0.13215440    -0.13140
C3          C  0.49741987  0.74836264  0.14916554     0.00510
C4          C  0.49860328  0.77853726  0.13309962    -0.11670
C5          C  0.49763662  0.77860733  0.10050898     0.03000
C6          C  0.49640068  0.74875477  0.08380429    -0.11090
H7          H  0.49433440  0.69483701  0.14454893     0.08590
H8          H  0.49897235  0.80139077  0.14596506     0.06120
H9          H  0.49678419  0.74971819  0.05859520     0.05970
C10         C  0.49289489  0.71683414  0.33302110     0.03010
C11         C  0.49480425  0.71811417  0.30042012    -0.13140
C12         C  0.49746520  0.74893164  0.28422206     0.00510
C13         C  0.49786056  0.77838948  0.30113918    -0.11670
C14         C  0.49656259  0.77746095  0.33379718     0.03000
C15         C  0.49422722  0.74671047  0.34966996    -0.11090
H16         H  0.49400987  0.69497390  0.28769588     0.08590
H17         H  0.49871714  0.80180449  0.28897621     0.06120
H18         H  0.49258673  0.74565954  0.37489382     0.05970
C19         C  0.22203617  0.78641363  0.33320241     0.03010
C20         C  0.21715616  0.79031235  0.30137492    -0.13140
C21         C  0.18743186  0.76156834  0.28489405     0.00510
C22         C  0.15954412  0.73054167  0.30125823    -0.11670
C23         C  0.16346890  0.72618466  0.33327858     0.03000
C24         C  0.19570441  0.75357092  0.34855954    -0.11090
H25         H  0.23728844  0.81525166  0.28892341     0.08590
H26         H  0.13535736  0.70958210  0.28882917     0.06120
H27         H  0.20044375  0.74899338  0.37249041     0.05970
C28         C  0.22082642  0.78449298  0.10060903     0.03010
C29         C  0.21842772  0.78757180  0.13293675    -0.13140
C30         C  0.18771385  0.75989392  0.14988320     0.00510
C31         C  0.15928247  0.72909964  0.13395166    -0.11670
C32         C  0.16126493  0.72599494  0.10148045     0.03000
C33         C  0.19218448  0.75383707  0.08494717    -0.11090
H34         H  0.24068476  0.81139545  0.14490270     0.08590
H35         H  0.13624163  0.70685659  0.14690420     0.06120
H36         H  0.19405950  0.75159635  0.05990802     0.05970
C37         C  0.15845060  0.44355414  0.10130128     0.03010
C38         C  0.18773131  0.44312786  0.08465557    -0.13140
C39         C  0.21496932  0.43868249  0.10024813     0.00510
C40         C  0.21287943  0.43451047  0.13266283    -0.11670
C41         C  0.18469523  0.43643341  0.14977389     0.03000
C42         C  0.15715021  0.44039579  0.13392421    -0.11090
H43         H  0.18941113  0.44638721  0.05954479     0.08590
H44         H  0.23355546  0.43023256  0.14452356     0.06120
H45         H  0.13480076  0.44105900  0.14694687     0.05970
C46         C  0.15689285  0.44392446  0.33236066     0.03010
C47         C  0.15552164  0.43947957  0.29986635    -0.13140
C48         C  0.18060923  0.43129056  0.28430220     0.00510
C49         C  0.20795100  0.42830035  0.30121404    -0.11670
C50         C  0.21144415  0.43483968  0.33348884     0.03000
C51         C  0.18482750  0.44129040  0.34892608    -0.11090
H52         H  0.13536201  0.44306517  0.28644864     0.08590
H53         H  0.22681248  0.42144532  0.28890895     0.06120
H54         H  0.18615616  0.44480780  0.37391652     0.05970
C55         C  0.76586659  0.24456088  0.33308849     0.03010
C56         C  0.76713538  0.24174320  0.30059508    -0.13140
C57         C  0.74057005  0.20917775  0.28528605     0.00510
C58         C  0.71313828  0.17922986  0.30295518    -0.11670
C59         C  0.71103613  0.18215478  0.33538919     0.03000
C60         C  0.73778301  0.21481895  0.35035867    -0.11090
H61         H  0.78839203  0.26513876  0.28725587     0.08590
H62         H  0.69282820  0.15378378  0.29139578     0.06120
H63         H  0.73604632  0.21772771  0.37532359     0.05970
C64         C  0.76373975  0.24196684  0.10159961     0.03010
C65         C  0.76673216  0.23969716  0.13388827    -0.13140
C66         C  0.74048798  0.20776001  0.15035835     0.00510
C67         C  0.71107076  0.17825176  0.13406474    -0.11670
C68         C  0.70623792  0.18128232  0.10206269     0.03000
C69         C  0.73331433  0.21307531  0.08588018    -0.11090
H70         H  0.78916419  0.26305372  0.14611981     0.08590
H71         H  0.69136017  0.15320063  0.14660874     0.06120
H72         H  0.73032688  0.21598976  0.06116021     0.05970
C73         C  0.70126803  0.52981933  0.09952019     0.03010
C74         C  0.72572370  0.51907959  0.08603872    -0.13140
C75         C  0.75558843  0.52142166  0.10295636     0.00510
C76         C  0.75807059  0.52948388  0.13476553    -0.11670
C77         C  0.73456397  0.54106152  0.14921289     0.03000
C78         C  0.70836288  0.54408177  0.13013563    -0.11090
H79         H  0.72219335  0.50944302  0.06218194     0.08590
H80         H  0.77872372  0.52642024  0.14773484     0.06120
H81         H  0.69337755  0.55758537  0.13861813     0.05970
C82         C  0.69668428  0.51926572  0.33334207     0.03010
C83         C  0.70097225  0.52529830  0.30106231    -0.13140
C84         C  0.73646065  0.54077653  0.28602338     0.00510
C85         C  0.76716394  0.54754222  0.30500978    -0.11670
C86         C  0.76183006  0.53495531  0.33601540     0.03000
C87         C  0.72700862  0.52287391  0.35050435    -0.11090
H88         H  0.67572159  0.51758346  0.28833637     0.08590
H89         H  0.79561696  0.56270975  0.29674953     0.06120
H90         H  0.72374571  0.51662258  0.37517681     0.05970
C91         C  0.41459323  0.17784190  0.33188876     0.03010
C92         C  0.41748652  0.20878126  0.34821483    -0.13140
C93         C  0.41190966  0.23555852  0.33301745     0.00510
C94         C  0.40434715  0.23219015  0.30114541    -0.11670
C95         C  0.40371301  0.20288009  0.28393855     0.03000
C96         C  0.40774199  0.17519505  0.29961058    -0.11090
H97         H  0.42479348  0.21258850  0.37264728     0.08590
H98         H  0.40041106  0.25327623  0.28953878     0.06120
H99         H  0.40662718  0.15218594  0.28647218     0.05970
C100        C  0.41195379  0.17661447  0.10043948     0.03010
C101        C  0.40618990  0.17413281  0.13286009    -0.13140
C102        C  0.40131064  0.20120896  0.14892064     0.00510
C103        C  0.40198348  0.23076031  0.13211673    -0.11670
C104        C  0.40736254  0.23331949  0.09973201     0.03000
C105        C  0.41197512  0.20602039  0.08403580    -0.11090
H106        H  0.40734346  0.15216880  0.14573651     0.08590
H107        H  0.39931437  0.25238598  0.14432817     0.06120
H108        H  0.41620634  0.20807460  0.05900382     0.05970
C109        C  0.47827776  0.58733399  0.39701458     0.42340
N110        N  0.48924329  0.55330798  0.42783394     0.01230
C111        C  0.40492431  0.35990281  0.43051799    -0.06650
H112        H  0.31370725  0.40787786  0.44840330     0.06720
C113        C  0.38429834  0.47439184  0.04626305    -0.07000
Co114      Co  0.44912628  0.47271535  0.40937068     0.74180
N115        N  0.37221896  0.43550895  0.43709548    -0.26180
Co116      Co  0.39516297  0.41710039  0.47082540     0.74070
C117        C  0.34525939  0.45325257  0.03649292     0.42440
N118        N  0.47484480  0.53680782  0.02086484     0.00840
N119        N  0.37843145  0.44029053  0.00600755     0.00950
N120        N  0.44096405  0.39702639  0.39091382    -0.47030
H121        H  0.43725024  0.53623248  0.36800503     0.06700
N122        N  0.39249764  0.45691583  0.41371475     0.01230
N123        N  0.41919091  0.39967659  0.00441462     0.00970
C124        C  0.43092566  0.36562134  0.03444317     0.42580
N125        N  0.49466258  0.55776029  0.99702449    -0.25640
C126        C  0.52401720  0.47824591  0.38637106    -0.06560
N127        N  0.49845300  0.58837085  0.42192081    -0.46740
N128        N  0.41013090  0.36458836  0.01004195    -0.46970
C129        C  0.56294477  0.49863770  0.39636837     0.42350
N130        N  0.43396817  0.41631809  0.41202861     0.01220
N131        N  0.53612857  0.51788595  0.99527671    -0.25660
N132        N  0.46468924  0.52927442  0.40797811    -0.26150
N133        N  0.51629998  0.49641924  0.01876683     0.00860
H134        H  0.59427481  0.54692466  0.48366638     0.06750
H135        H  0.47169001  0.41635464  0.06388397     0.06780
N136        N  0.41306996  0.39525721  0.43538060    -0.26200
N137        N  0.40278334  0.46448807  0.02594102    -0.25810
N138        N  0.53009248  0.51242601  0.42665394     0.01220
C139        C  0.33643708  0.44562126  0.40455802     0.42620
C140        C  0.50153733  0.59282964  0.00153953    -0.07060
N141        N  0.44390501  0.42362985  0.02427038    -0.25810
H142        H  0.39650366  0.49334104  0.06567750     0.06770
N143        N  0.37218625  0.46342654  0.39361950    -0.47030
H144        H  0.51817691  0.61654775  0.48648556     0.06760
C145        C  0.57294174  0.50927008  0.02758470     0.42460
C146        C  0.45566616  0.54816790  0.38770897    -0.06560
Co147      Co  0.51305963  0.53596829  0.46160945     0.73820
N148        N  0.46813039  0.55602511  0.04225798    -0.46750
C149        C  0.42364453  0.36131069  0.40120675     0.42720
N150        N  0.56481076  0.51976833  0.42105022    -0.46740
Co151      Co  0.45956636  0.48031222  0.02324829     0.73890
C152        C  0.45312260  0.40460457  0.04425002    -0.07070
C153        C  0.33651400  0.42672141  0.43336528    -0.06630
N154        N  0.50572803  0.48837699  0.40667617    -0.26160
N155        N  0.34359804  0.43234656  0.01177912    -0.46920
H156        H  0.38735317  0.33615292  0.44525022     0.06730
C157        C  0.57202989  0.52752736  0.99875909    -0.07040
Cl158      Cl  0.45420389  0.47654123  0.46629412    -0.50050
C159        C  0.48372509  0.59138574  0.03136080     0.42490
H160        H  0.51170169  0.45941971  0.36689941     0.06700
N161        N  0.53731401  0.49094195  0.03890437    -0.46760
C162        C  0.04716187  0.59641034  0.03723959     0.42340
N163        N  0.00059827  0.56351690  0.00766190     0.01230
C164        C  0.89174171  0.37031048  0.00311273    -0.06650
H165        H  0.03335855  0.42109453  0.48597841     0.06720
C166        C  0.02661012  0.48565709  0.38747082    -0.07000
Co167      Co  0.95973023  0.48255485  0.02567442     0.74180
N168        N  0.00046143  0.44656928  0.99793868    -0.26180
Co169      Co  0.95961737  0.42866581  0.46379133     0.74070
C170        C  0.04515872  0.46515470  0.39713193     0.42440
N171        N  0.99953988  0.54841702  0.41493139     0.00840
N172        N  0.00011135  0.45278503  0.42883061     0.00950
N173        N  0.89225891  0.40627047  0.04326007    -0.47030
H174        H  0.03637470  0.54503497  0.06624428     0.06700
N175        N  0.00057192  0.46686677  0.02176969     0.01230
N176        N  0.91849703  0.41149203  0.42998171     0.00970
C177        C  0.87456145  0.37677197  0.39848691     0.42580
N178        N  0.99975908  0.56898213  0.43858493    -0.25640
C179        C  0.88960314  0.48690604  0.04793506    -0.06560
N180        N  0.02752479  0.59828676  0.01308115    -0.46740
N181        N  0.89338232  0.37633242  0.42383639    -0.46970
C182        C  0.87145542  0.50780126  0.03833326     0.42350
N183        N  0.91878556  0.42617630  0.02244295     0.01220
N184        N  0.91861795  0.52910561  0.43991607    -0.25660
N185        N  0.00082114  0.53909526  0.02736114    -0.26150
N186        N  0.91737616  0.50792528  0.41637765     0.00860
H187        H  0.88856508  0.55736253  0.45156090     0.06750
H188        H  0.88441396  0.42786653  0.36922910     0.06780
N189        N  0.91911405  0.40576761  0.99884413    -0.26200
N190        N  0.99919922  0.47642760  0.40866062    -0.25810
N191        N  0.91881112  0.52277143  0.00863814     0.01220
C192        C  0.04460280  0.45487264  0.03166198     0.42620
C193        C  0.02778679  0.60411276  0.43449958    -0.07060
N194        N  0.91768357  0.43536865  0.41004524    -0.25810
H195        H  0.03230132  0.50380509  0.36757403     0.06770
N196        N  0.02643436  0.47239964  0.04254149    -0.47030
H197        H  0.03324111  0.62691318  0.44997669     0.06760
C198        C  0.87330882  0.52040945  0.40732176     0.42460
C199        C  0.02946139  0.55737385  0.04706539    -0.06560
Co200      Co  0.95949107  0.54677152  0.47381209     0.73820
N201        N  0.02665076  0.56787481  0.39444183    -0.46750
C202        C  0.87380385  0.37075423  0.03248703     0.42720
N203        N  0.89135050  0.52996487  0.01426959    -0.46740
Co204      Co  0.95827833  0.49206825  0.41175501     0.73890
C205        C  0.89049991  0.41606561  0.38928657    -0.07070
C206        C  0.02756352  0.43804576  0.00179801    -0.06630
N207        N  0.91865783  0.49799776  0.02813928    -0.26160
N208        N  0.02698363  0.44492452  0.42256489    -0.46920
H209        H  0.88584738  0.34707844  0.48789870     0.06730
C210        C  0.89216200  0.53852563  0.43629827    -0.07040
Cl211      Cl  0.95927422  0.48749247  0.46874821    -0.50050
C212        C  0.04610686  0.60339900  0.40523012     0.42490
H213        H  0.88250773  0.46721970  0.06689509     0.06700
N214        N  0.89087930  0.50227521  0.39621198    -0.46760
C215        C  0.48500373  0.89426456  0.03624383     0.42340
N216        N  0.49879696  0.94043251  0.00590285     0.01230
C217        C  0.41766983  0.05268393  0.00253407    -0.06650
H218        H  0.32482082  0.91153879  0.48530692     0.06720
C219        C  0.39635714  0.91721378  0.38702593    -0.07000
Co220      Co  0.45976443  0.98245068  0.02423042     0.74180
N221        N  0.38294677  0.94371442  0.99721738    -0.26180
Co222      Co  0.40657217  0.98454031  0.46276540     0.74310
C223        C  0.35648964  0.89992510  0.39528689     0.42440
N224        N  0.48455658  0.94175681  0.41352122     0.00840
N225        N  0.38931475  0.94402844  0.42781713     0.00950
N226        N  0.45197862  0.05019449  0.04241300    -0.47030
H227        H  0.44463920  0.90576654  0.06546213     0.06700
N228        N  0.40277862  0.94266969  0.02075402     0.01230
N229        N  0.43131413  0.02549370  0.42835935     0.00970
C230        C  0.44197720  0.06936105  0.39568988     0.42580
N231        N  0.50481199  0.94086888  0.43677369    -0.25640
C232        C  0.53599969  0.05003222  0.04670910    -0.06560
N233        N  0.50653380  0.91348092  0.01164718    -0.46740
N234        N  0.42213636  0.05112695  0.42144226    -0.46970
C235        C  0.57544849  0.06702087  0.03687877     0.42350
N236        N  0.44548388  0.02429187  0.02118496     0.01220
N237        N  0.54741041  0.02241400  0.43717424    -0.25660
N238        N  0.47418343  0.94059051  0.02578500    -0.26150
N239        N  0.52715390  0.02341604  0.41400876     0.00860
H240        H  0.60612794  0.05490740  0.44791587     0.06750
H241        H  0.48366510  0.05756055  0.36790126     0.06780
N242        N  0.42520014  0.02493905  0.99778278    -0.26200
N243        N  0.41410024  0.94413342  0.40814083    -0.25810
N244        N  0.54102010  0.02178734  0.00609951     0.01220
C245        C  0.34640741  0.89907352  0.03068531     0.42620
C246        C  0.51043915  0.91177814  0.43266797    -0.07060
N247        N  0.45585811  0.02527426  0.40854862    -0.25810
H248        H  0.41054769  0.91190622  0.36823026     0.06770
N249        N  0.38197898  0.91633242  0.04135589    -0.47030
H250        H  0.52650499  0.90419598  0.44773786     0.06760
C251        C  0.58289576  0.06805854  0.40385757     0.42460
C252        C  0.46369843  0.91218756  0.04593744    -0.06560
Co253      Co  0.52367420  0.98136204  0.47155800     0.73820
N254        N  0.47576722  0.91442759  0.39322357    -0.46750
C255        C  0.43587595  0.06956204  0.03184198     0.42720
N256        N  0.57607623  0.04772414  0.01169537    -0.46740
Co257      Co  0.47062393  0.98374788  0.41050887     0.73890
C258        C  0.46480485  0.05227886  0.38730756    -0.07070
C259        C  0.34714212  0.91697312  0.00116977    -0.06630
N260        N  0.51692917  0.02231764  0.02628273    -0.26160
N261        N  0.35453694  0.91815731  0.42094188    -0.46920
H262        H  0.40029758  0.05911377  0.48800428     0.06730
C263        C  0.58305932  0.04961844  0.43291365    -0.07040
Cl264      Cl  0.46514452  0.98305167  0.46729231    -0.50050
C265        C  0.49059954  0.89397991  0.40403644     0.42490
H266        H  0.52370018  0.05672173  0.06628664     0.06700
N267        N  0.54727136  0.04999453  0.39349451    -0.46760
C268        C  0.39092199  0.30910718  0.06565832    -0.26440
C269        C  0.42562687  0.33216805  0.05106619    -0.14510
C270        C  0.45378962  0.32211288  0.05183984     0.36120
C271        C  0.44661259  0.28949549  0.06765398    -0.25890
C272        C  0.41205120  0.26653635  0.08260613    -0.15130
C273        C  0.38369133  0.27642684  0.08145299     0.37200
N274        N  0.34699650  0.25360400  0.09491880    -0.89380
H275        H  0.36910941  0.31651885  0.06466357     0.18320
H276        H  0.46844925  0.28210456  0.06847483     0.18310
N277        N  0.48968426  0.34386189  0.03671890    -0.88410
H278        H  0.34420640  0.26846229  0.11354523     0.35690
H279        H  0.34332826  0.22845200  0.10377190     0.40780
H280        H  0.49206799  0.36737306  0.02550379     0.40400
H281        H  0.49179945  0.32715093  0.01934917     0.35290
C282        C  0.45529602  0.13433599  0.04702110    -0.26440
C283        C  0.42998260  0.09603806  0.05067167    -0.14510
C284        C  0.39922410  0.08397068  0.07153450     0.36120
C285        C  0.39432958  0.11076208  0.08785550    -0.25890
C286        C  0.41920908  0.14922333  0.08375581    -0.15130
C287        C  0.45047398  0.16112485  0.06356286     0.37200
N288        N  0.47737345  0.20030716  0.06019030    -0.89380
H289        H  0.47893629  0.14333998  0.03118255     0.18320
H290        H  0.37044810  0.10144916  0.10346931     0.18310
N291        N  0.37248683  0.04504539  0.07679347    -0.88410
H292        H  0.49860189  0.20431105  0.04443980     0.35690
H293        H  0.49017665  0.21003255  0.08177199     0.40780
H294        H  0.37895231  0.02744343  0.06396222     0.40400
H295        H  0.34645786  0.04019697  0.06897436     0.35290
C296        C  0.42471602  0.23398002  0.19933375    -0.26440
C297        C  0.39976140  0.20115259  0.18351182    -0.14510
C298        C  0.37510425  0.16886890  0.20081465     0.36120
C299        C  0.37651587  0.17001741  0.23359247    -0.25890
C300        C  0.40185490  0.20283589  0.24936681    -0.15130
C301        C  0.42633994  0.23512626  0.23194478     0.37200
N302        N  0.45366023  0.26865312  0.24736867    -0.89380
H303        H  0.44405222  0.25858565  0.18608963     0.18320
H304        H  0.35765919  0.14529045  0.24692304     0.18310
N305        N  0.34864145  0.13522001  0.18507468    -0.88410
H306        H  0.46932101  0.28985990  0.23121519     0.35690
H307        H  0.47246972  0.26256646  0.25851516     0.40780
H308        H  0.33001782  0.14101223  0.17325625     0.40400
H309        H  0.33265644  0.11403657  0.20115313     0.35290
C310        C  0.38309207  0.26783591  0.36026639    -0.26440
C311        C  0.41578039  0.26826868  0.35017846    -0.14510
C312        C  0.45127928  0.29982859  0.35642888     0.36120
C313        C  0.45304617  0.33019017  0.37267704    -0.25890
C314        C  0.42038096  0.32939444  0.38328460    -0.15130
C315        C  0.38501693  0.29816009  0.37682831     0.37200
N316        N  0.35127376  0.29767808  0.38662979    -0.89380
H317        H  0.35601921  0.24372125  0.35516150     0.18320
H318        H  0.48019076  0.35436596  0.37749745     0.18310
N319        N  0.48591659  0.30234488  0.34638288    -0.88410
H320        H  0.32762887  0.27262125  0.38005410     0.35690
H321        H  0.35005536  0.31912643  0.37471271     0.40780
H322        H  0.48151230  0.27889016  0.33368789     0.40400
H323        H  0.50068552  0.30316363  0.36632471     0.35290
C324        C  0.44353531  0.13708511  0.33386779    -0.26440
C325        C  0.42093455  0.14957685  0.34815279    -0.14510
C326        C  0.40497318  0.13511005  0.37772245     0.36120
C327        C  0.41320123  0.10982845  0.39268603    -0.25890
C328        C  0.43574382  0.09714954  0.37842349    -0.15130
C329        C  0.45038175  0.11045716  0.34819506     0.37200
N330        N  0.47142319  0.09659691  0.33164607    -0.89380
H331        H  0.45587553  0.14805116  0.31120427     0.18320
H332        H  0.40129554  0.09950548  0.41558906     0.18310
N333        N  0.37985799  0.14550170  0.39225063    -0.88410
H334        H  0.48168223  0.11072476  0.31048583     0.35690
H335        H  0.45268769  0.06870096  0.32592121     0.40780
H336        H  0.35610649  0.13542531  0.37826504     0.40400
H337        H  0.37065646  0.13249476  0.41395879     0.35290
C338        C  0.61102106  0.48044203  0.38734768    -0.26440
C339        C  0.59589423  0.50303218  0.37914677    -0.14510
C340        C  0.61307172  0.52996743  0.35521655     0.36120
C341        C  0.64548882  0.53414263  0.34062445    -0.25890
C342        C  0.66113243  0.51189080  0.34893588    -0.15130
C343        C  0.64328043  0.48440875  0.37230709     0.37200
N344        N  0.65726084  0.45998379  0.38041285    -0.89380
H345        H  0.59769641  0.45957158  0.40553098     0.18320
H346        H  0.65904013  0.55565211  0.32295558     0.18310
N347        N  0.59911538  0.55411442  0.34552889    -0.88410
H348        H  0.66331069  0.46315075  0.40419653     0.35690
H349        H  0.63594381  0.43240941  0.37668465     0.40780
H350        H  0.57531692  0.54928726  0.35813286     0.40400
H351        H  0.59093252  0.54784286  0.32229576     0.35290
C352        C  0.83543688  0.50970464  0.35968972    -0.26440
C353        C  0.84439499  0.52454807  0.38990173    -0.14510
C354        C  0.82587916  0.54305200  0.40225816     0.36120
C355        C  0.80079815  0.54796549  0.38351949    -0.25890
C356        C  0.79214051  0.53328107  0.35329012    -0.15130
C357        C  0.80935965  0.51328511  0.34158779     0.37200
N358        N  0.79965122  0.49457210  0.31210245    -0.89380
H359        H  0.84849144  0.49465372  0.34997659     0.18320
H360        H  0.78699883  0.56244719  0.39292316     0.18310
N361        N  0.83141429  0.55583226  0.43393997    -0.88410
H362        H  0.80806010  0.51442759  0.29436054     0.35690
H363        H  0.77058321  0.47693393  0.31134931     0.40780
H364        H  0.82006039  0.53210448  0.44823975     0.40400
H365        H  0.81640930  0.56955923  0.43895497     0.35290
C366        C  0.67179173  0.53111920  0.04901373    -0.26440
C367        C  0.66849523  0.52583847  0.08147448    -0.14510
C368        C  0.63313992  0.51412695  0.09562796     0.36120
C369        C  0.60288354  0.50942599  0.07752202    -0.25890
C370        C  0.60632811  0.51483378  0.04513021    -0.15130
C371        C  0.64128664  0.52486496  0.03075131     0.37200
N372        N  0.64676436  0.52734611  0.99768441    -0.89380
H373        H  0.69839952  0.54015217  0.03735715     0.18320
H374        H  0.57628736  0.50100705  0.08903845     0.18310
N375        N  0.62713962  0.50547623  0.12817313    -0.88410
H376        H  0.64789739  0.55171358  0.48964363     0.35690
H377        H  0.62494175  0.50364070  0.48718214     0.40780
H378        H  0.60587184  0.47759003  0.13064536     0.40400
H379        H  0.61776105  0.52244593  0.13835715     0.35290
C380        C  0.76998028  0.55592035  0.19975739    -0.26440
C381        C  0.73706876  0.54823658  0.18396469    -0.14510
C382        C  0.70660112  0.54424855  0.20247159     0.36120
C383        C  0.70976167  0.54735112  0.23497529    -0.25890
C384        C  0.73994729  0.54802620  0.25098006    -0.15130
C385        C  0.77089936  0.55304424  0.23227428     0.37200
N386        N  0.80307196  0.55368130  0.24521660    -0.89380
H387        H  0.79521441  0.56222702  0.18698560     0.18320
H388        H  0.68679772  0.54731119  0.24728207     0.18310
N389        N  0.67129549  0.53497413  0.18912107    -0.88410
H390        H  0.80575982  0.53193263  0.23526895     0.35690
H391        H  0.82682217  0.57906186  0.23913810     0.40780
H392        H  0.65066364  0.50965063  0.19878468     0.40400
H393        H  0.66498013  0.55580584  0.19522715     0.35290
C394        C  0.77610719  0.48521143  0.06941804    -0.26440
C395        C  0.78545074  0.51738053  0.08705642    -0.14510
C396        C  0.82320440  0.54656361  0.08825903     0.36120
C397        C  0.85088617  0.54267045  0.07217190    -0.25890
C398        C  0.84152894  0.51037904  0.05493892    -0.15130
C399        C  0.80394752  0.48137991  0.05338511     0.37200
N400        N  0.79415906  0.44878490  0.03479065    -0.89380
H401        H  0.74708200  0.46309926  0.06822836     0.18320
H402        H  0.87988903  0.56494190  0.07295529     0.18310
N403        N  0.83312473  0.58031134  0.10530135    -0.88410
H404        H  0.76522146  0.43033077  0.03569206     0.35690
H405        H  0.80673311  0.43479483  0.04481117     0.40780
H406        H  0.82025159  0.59359031  0.09445211     0.40400
H407        H  0.86202600  0.59884328  0.10397077     0.35290
C408        C  0.60521125  0.10851673  0.08258913    -0.26440
C409        C  0.60932975  0.09668153  0.05283233    -0.14510
C410        C  0.64576523  0.11343285  0.03924690     0.36120
C411        C  0.67662418  0.14034881  0.05582512    -0.25890
C412        C  0.67249550  0.15193572  0.08565249    -0.15130
C413        C  0.63611536  0.13623502  0.09891587     0.37200
N414        N  0.63042158  0.14903811  0.12857974    -0.89380
H415        H  0.57769978  0.09636338  0.09329521     0.18320
H416        H  0.70424092  0.15217865  0.04523576     0.18310
N417        N  0.65262351  0.10434973  0.50854790    -0.88410
H418        H  0.60210065  0.13452402  0.13508809     0.35690
H419        H  0.63785234  0.17713512  0.12604745     0.40780
H420        H  0.63627750  0.10909647  0.49273236     0.40400
H421        H  0.64547334  0.07621732  0.50797810     0.35290
C422        C  0.79484002  0.30980710  0.08886514    -0.26440
C423        C  0.79215464  0.27489891  0.08415167    -0.14510
C424        C  0.81613266  0.27140464  0.06251352     0.36120
C425        C  0.84220300  0.30298226  0.04559385    -0.25890
C426        C  0.84502024  0.33805392  0.05016108    -0.15130
C427        C  0.82087628  0.34145115  0.07186815     0.37200
N428        N  0.82224693  0.37671330  0.07600219    -0.89380
H429        H  0.77606870  0.31213703  0.10542453     0.18320
H430        H  0.86090716  0.30026363  0.02925831     0.18310
N431        N  0.81410803  0.23584217  0.05811451    -0.88410
H432        H  0.80264033  0.37444562  0.09279057     0.35690
H433        H  0.81408881  0.38305410  0.05497136     0.40780
H434        H  0.82184196  0.22876852  0.07904023     0.40400
H435        H  0.83360499  0.23794755  0.04128495     0.35290
C436        C  0.64246084  0.14071861  0.34253148    -0.26440
C437        C  0.67881632  0.15249727  0.35307372    -0.14510
C438        C  0.68369577  0.13679617  0.38051888     0.36120
C439        C  0.65200275  0.10980051  0.39696325    -0.25890
C440        C  0.61547652  0.09788124  0.38644073    -0.15130
C441        C  0.61075161  0.11389616  0.35893955     0.37200
N442        N  0.57392685  0.10323619  0.34774967    -0.89380
H443        H  0.63878231  0.15323852  0.32167349     0.18320
H444        H  0.65609572  0.09773928  0.41785289     0.18310
N445        N  0.72076693  0.14788634  0.39130939    -0.88410
H446        H  0.57554382  0.11663251  0.32667506     0.35690
H447        H  0.56148830  0.11289423  0.36385339     0.40780
H448        H  0.73369314  0.13954165  0.37454466     0.40400
H449        H  0.71950544  0.13379105  0.41188806     0.35290
C450        C  0.77362629  0.21717952  0.23426985    -0.26440
C451        C  0.74027786  0.20722833  0.25076659    -0.14510
C452        C  0.70712399  0.19660389  0.23405630     0.36120
C453        C  0.70784592  0.19623388  0.20148397    -0.25890
C454        C  0.74117881  0.20656893  0.18489792    -0.15130
C455        C  0.77431046  0.21678384  0.20154209     0.37200
N456        N  0.80849139  0.22613075  0.18537157    -0.89380
H457        H  0.79922238  0.22510291  0.24684743     0.18320
H458        H  0.68227892  0.18889720  0.18907131     0.18310
N459        N  0.67288709  0.18755981  0.25002225    -0.88410
H460        H  0.81743384  0.20774732  0.19277999     0.35690
H461        H  0.82875063  0.25322615  0.19188482     0.40780
H462        H  0.65257193  0.16041794  0.24366791     0.40400
H463        H  0.66407887  0.20596188  0.24237640     0.35290
C464        C  0.82181370  0.34504280  0.36110987    -0.26440
C465        C  0.84717658  0.34281680  0.38143876    -0.14510
C466        C  0.84598086  0.30809703  0.38527149     0.36120
C467        C  0.81888487  0.27640904  0.36940498    -0.25890
C468        C  0.79366841  0.27876306  0.34923843    -0.15130
C469        C  0.79493780  0.31325882  0.34501943     0.37200
N470        N  0.76859031  0.31566467  0.32478832    -0.89380
H471        H  0.82249155  0.37146131  0.35816562     0.18320
H472        H  0.81776762  0.24975431  0.37233263     0.18310
N473        N  0.87264784  0.30513441  0.40470680    -0.88410
H474        H  0.77328129  0.34303550  0.32420771     0.35690
H475        H  0.74180463  0.29897113  0.33436415     0.40780
H476        H  0.89907101  0.32094320  0.39425112     0.40400
H477        H  0.86725745  0.27752324  0.40547325     0.35290
C478        C  0.23751334  0.42242521  0.38168163    -0.26440
C479        C  0.24345117  0.43647892  0.35109570    -0.14510
C480        C  0.28037040  0.45424088  0.33876316     0.36120
C481        C  0.30977944  0.45642381  0.35657337    -0.25890
C482        C  0.30390303  0.44274355  0.38723057    -0.15130
C483        C  0.26733262  0.42657426  0.40022922     0.37200
N484        N  0.26044523  0.41534124  0.43235530    -0.89380
H485        H  0.20946181  0.40866574  0.39153620     0.18320
H486        H  0.33764655  0.46959166  0.34631755     0.18310
N487        N  0.28866455  0.47147428  0.30861295    -0.88410
H488        H  0.23199026  0.40352905  0.43799896     0.35690
H489        H  0.27458456  0.43959836  0.44581257     0.40780
H490        H  0.30087994  0.45922824  0.29502422     0.40400
H491        H  0.30839041  0.49985808  0.31123365     0.35290
C492        C  0.11091827  0.48084427  0.38924916    -0.26440
C493        C  0.07357314  0.46076018  0.37977478    -0.14510
C494        C  0.06351606  0.43608875  0.35438893     0.36120
C495        C  0.09115284  0.43109799  0.33935343    -0.25890
C496        C  0.12886322  0.45097659  0.34876913    -0.15130
C497        C  0.13892855  0.47696432  0.37357648     0.37200
N498        N  0.17749744  0.49993786  0.38234868    -0.89380
H499        H  0.11829441  0.50007802  0.40865159     0.18320
H500        H  0.08302097  0.41107137  0.32050631     0.18310
N501        N  0.02526804  0.41612852  0.34410463    -0.88410
H502        H  0.17995314  0.51739809  0.40098166     0.35690
H503        H  0.19180442  0.51741005  0.36347915     0.40780
H504        H  0.00903875  0.39788712  0.36198226     0.40400
H505        H  0.02261413  0.39947942  0.32479635     0.35290
C506        C  0.15213364  0.40658098  0.19956112    -0.26440
C507        C  0.18417030  0.43456053  0.18422565    -0.14510
C508        C  0.21478106  0.46088908  0.20209440     0.36120
C509        C  0.21300161  0.45820226  0.23451491    -0.25890
C510        C  0.18111048  0.43023644  0.24989253    -0.15130
C511        C  0.15016026  0.40400148  0.23217127     0.37200
N512        N  0.11687621  0.37396425  0.24620505    -0.89380
H513        H  0.12853874  0.38633758  0.18603839     0.18320
H514        H  0.23643002  0.47889143  0.24794541     0.18310
N515        N  0.24716229  0.49188437  0.18817750    -0.88410
H516        H  0.09480228  0.37902098  0.24204811     0.35690
H517        H  0.11929242  0.37289236  0.27028755     0.40780
H518        H  0.23836892  0.50648559  0.17390252     0.40400
H519        H  0.26157383  0.48199355  0.17467267     0.35290
C520        C  0.27303798  0.47562033  0.06959701    -0.26440
C521        C  0.24721710  0.44105891  0.08293637    -0.14510
C522        C  0.25368588  0.41048457  0.08058537     0.36120
C523        C  0.28602590  0.41552326  0.06519316    -0.25890
C524        C  0.31215512  0.45027448  0.05240084    -0.15130
C525        C  0.30543452  0.48068552  0.05428048     0.37200
N526        N  0.33033499  0.51676816  0.04076721    -0.89380
H527        H  0.26813024  0.49907814  0.07139275     0.18320
H528        H  0.29089809  0.39204765  0.06331267     0.18310
N529        N  0.22786612  0.37389174  0.09269992    -0.88410
H530        H  0.31548197  0.52169486  0.02357605     0.35690
H531        H  0.35321620  0.51739973  0.02952751     0.40780
H532        H  0.20361703  0.37243780  0.10187868     0.40400
H533        H  0.24113209  0.36846705  0.11094460     0.35290
C534        C  0.09321362  0.47740180  0.07281090    -0.26440
C535        C  0.07329976  0.45102355  0.04946228    -0.14510
C536        C  0.08078832  0.42144206  0.04411363     0.36120
C537        C  0.10896326  0.42000764  0.06118687    -0.25890
C538        C  0.12898235  0.44655008  0.08420672    -0.15130
C539        C  0.12099554  0.47549661  0.09022605     0.37200
N540        N  0.14154833  0.50315755  0.11357680    -0.89380
H541        H  0.08746558  0.49996498  0.07720971     0.18320
H542        H  0.11487056  0.39750234  0.05700407     0.18310
N543        N  0.05922347  0.39228601  0.02216697    -0.88410
H544        H  0.13219479  0.52248882  0.11519174     0.35690
H545        H  0.16958293  0.51809622  0.10628984     0.40780
H546        H  0.03173579  0.37738136  0.03078036     0.40400
H547        H  0.06888236  0.37318653  0.02069184     0.35290
C548        C  0.06654372  0.65092594  0.07156641    -0.26440
C549        C  0.07687039  0.62922217  0.05330183    -0.14510
C550        C  0.11510330  0.63952018  0.05057210     0.36120
C551        C  0.14205311  0.67138198  0.06628633    -0.25890
C552        C  0.13175043  0.69292686  0.08490339    -0.15130
C553        C  0.09359937  0.68269267  0.08749010     0.37200
N554        N  0.08258404  0.70482453  0.10595403    -0.89380
H555        H  0.03720121  0.64296634  0.07342074     0.18320
H556        H  0.17133981  0.67920588  0.06417648     0.18310
N557        N  0.12774201  0.61902072  0.03166251    -0.88410
H558        H  0.05349101  0.69340243  0.10551585     0.35690
H559        H  0.09432329  0.73129372  0.09562187     0.40780
H560        H  0.10561262  0.59644892  0.02040077     0.40400
H561        H  0.13965521  0.60781800  0.04649196     0.35290
C562        C  0.24911298  0.84058479  0.06704994    -0.26440
C563        C  0.25337827  0.81345489  0.08305986    -0.14510
C564        C  0.28840587  0.81475795  0.08214345     0.36120
C565        C  0.31803769  0.84294961  0.06474216    -0.25890
C566        C  0.31360461  0.86971985  0.04805933    -0.15130
C567        C  0.27864999  0.86866403  0.04972863     0.37200
N568        N  0.27249154  0.89642051  0.03538977    -0.89380
H569        H  0.22250965  0.84003302  0.06817394     0.18320
H570        H  0.34472458  0.84365640  0.06397623     0.18310
N571        N  0.29480994  0.78776576  0.09795584    -0.88410
H572        H  0.27260924  0.89352098  0.01127433     0.35690
H573        H  0.29380314  0.92300527  0.04197633     0.40780
H574        H  0.27076761  0.76745870  0.10941961     0.40400
H575        H  0.31491291  0.80201498  0.11506720     0.35290
C576        C  0.12502976  0.70052216  0.38156584    -0.26440
C577        C  0.13397648  0.69386754  0.35144106    -0.14510
C578        C  0.11525840  0.65684863  0.33982585     0.36120
C579        C  0.08677027  0.62808011  0.35787742    -0.25890
C580        C  0.07758249  0.63489697  0.38793069    -0.15130
C581        C  0.09823769  0.67148477  0.40030273     0.37200
N582        N  0.09272787  0.67930426  0.43191591    -0.89380
H583        H  0.13929899  0.72873345  0.39078923     0.18320
H584        H  0.07187435  0.60001125  0.34840528     0.18310
N585        N  0.12561288  0.64832677  0.31012752    -0.88410
H586        H  0.10944239  0.70779625  0.43693438     0.35690
H587        H  0.10203855  0.66525488  0.44633418     0.40780
H588        H  0.15324571  0.65384921  0.31175420     0.40400
H589        H  0.10910819  0.61982683  0.30505228     0.35290
C590        C  0.21911154  0.76803218  0.20067164    -0.26440
C591        C  0.18708516  0.76171756  0.18443535    -0.14510
C592        C  0.15504634  0.75619446  0.20132299     0.36120
C593        C  0.15560429  0.75640051  0.23413569    -0.25890
C594        C  0.18767173  0.76249707  0.25029779    -0.15130
C595        C  0.21970171  0.76817254  0.23330035     0.37200
N596        N  0.25240031  0.77297702  0.24924616    -0.89380
H597        H  0.24349502  0.77171316  0.18777405     0.18320
H598        H  0.13109100  0.75210868  0.24717182     0.18310
N599        N  0.12229560  0.75076498  0.18512824    -0.88410
H600        H  0.27355200  0.77707324  0.23337463     0.35690
H601        H  0.24488283  0.74805115  0.26109997     0.40780
H602        H  0.12969956  0.77532530  0.17273478     0.40400
H603        H  0.10122164  0.74706770  0.20093221     0.35290
C604        C  0.29059327  0.83221173  0.33362936    -0.26440
C605        C  0.25607941  0.81548929  0.34955526    -0.14510
C606        C  0.25488594  0.82683458  0.38048264     0.36120
C607        C  0.28828956  0.85361036  0.39477960    -0.25890
C608        C  0.32290694  0.87040775  0.37876652    -0.15130
C609        C  0.32352715  0.85958846  0.34742043     0.37200
N610        N  0.35658113  0.87590097  0.32834431    -0.89380
H611        H  0.29230907  0.82369890  0.31005150     0.18320
H612        H  0.28707892  0.86179371  0.41857755     0.18310
N613        N  0.21979836  0.81191251  0.39708379    -0.88410
H614        H  0.37518167  0.86791655  0.33691362     0.35690
H615        H  0.36839757  0.90499826  0.32814640     0.40780
H616        H  0.20325545  0.82057110  0.38540305     0.40400
H617        H  0.22384474  0.82305752  0.41955179     0.35290
C618        C  0.52007058  0.68497224  0.36261843    -0.26440
C619        C  0.48829300  0.68356597  0.34966084    -0.14510
C620        C  0.45301751  0.65042961  0.35241993     0.36120
C621        C  0.45067589  0.61926494  0.36757465    -0.25890
C622        C  0.48240446  0.62066126  0.38067426    -0.15130
C623        C  0.51757012  0.65377767  0.37802986     0.37200
N624        N  0.55070947  0.65532764  0.39027959    -0.89380
H625        H  0.54700377  0.71038561  0.36028866     0.18320
H626        H  0.42363313  0.59393784  0.36964654     0.18310
N627        N  0.41909420  0.64734591  0.34034510    -0.88410
H628        H  0.57417983  0.68175608  0.38650503     0.35690
H629        H  0.55542445  0.63628298  0.37768252     0.40780
H630        H  0.42383591  0.67209416  0.32975134     0.40400
H631        H  0.40109555  0.64282869  0.35924333     0.35290
C632        C  0.46254085  0.80905878  0.35242704    -0.26440
C633        C  0.49597607  0.80788628  0.35148898    -0.14510
C634        C  0.52725740  0.83443838  0.36858352     0.36120
C635        C  0.52419480  0.86152210  0.38610999    -0.25890
C636        C  0.49081066  0.86293077  0.38694883    -0.15130
C637        C  0.45930663  0.83584640  0.37022627     0.37200
N638        N  0.42314986  0.83318589  0.37191931    -0.89380
H639        H  0.43830520  0.78819162  0.33987926     0.18320
H640        H  0.54856612  0.88230020  0.39855440     0.18310
N641        N  0.56276363  0.83557496  0.36802206    -0.88410
H642        H  0.41844468  0.84218695  0.35057770     0.35690
H643        H  0.42160038  0.84996372  0.38941405     0.40780
H644        H  0.56261118  0.81540554  0.35318661     0.40400
H645        H  0.56766660  0.82935932  0.39047660     0.35290
C646        C  0.51209578  0.66836788  0.09110600    -0.26440
C647        C  0.49124518  0.68516283  0.08162449    -0.14510
C648        C  0.46716411  0.67005375  0.05567792     0.36120
C649        C  0.46584706  0.63988001  0.03921490    -0.25890
C650        C  0.48648953  0.62329293  0.04897833    -0.15130
C651        C  0.50959436  0.63731200  0.07524658     0.37200
N652        N  0.53059548  0.62009885  0.08553453    -0.89380
H653        H  0.53074952  0.67973456  0.11077472     0.18320
H654        H  0.44785051  0.62854677  0.01912889     0.18310
N655        N  0.44333908  0.68459252  0.04662074    -0.88410
H656        H  0.54599013  0.63353951  0.10540637     0.35690
H657        H  0.55008498  0.62401715  0.06804413     0.40780
H658        H  0.42431568  0.67931507  0.06486504     0.40400
H659        H  0.42747859  0.67039188  0.02715350     0.35290
C660        C  0.52058983  0.87346986  0.06838090    -0.26440
C661        C  0.48750391  0.86422498  0.05239548    -0.14510
C662        C  0.45782532  0.82666869  0.05205819     0.36120
C663        C  0.46220285  0.79927348  0.06757036    -0.25890
C664        C  0.49509181  0.80855345  0.08385291    -0.15130
C665        C  0.52458610  0.84597527  0.08438408     0.37200
N666        N  0.55839299  0.85577014  0.10102896    -0.89380
H667        H  0.54322921  0.90230381  0.06855244     0.18320
H668        H  0.43953536  0.77044971  0.06717938     0.18310
N669        N  0.42339907  0.81506833  0.03570548    -0.88410
H670        H  0.57726623  0.88451386  0.09924945     0.35690
H671        H  0.57119596  0.84224043  0.09016550     0.40780
H672        H  0.42343550  0.83728960  0.02411887     0.40400
H673        H  0.40174395  0.80529111  0.05226475     0.35290
C674        C  0.52449623  0.77956473  0.19982405    -0.26440
C675        C  0.49724919  0.74805715  0.18377772    -0.14510
C676        C  0.46995621  0.71698646  0.20088909     0.36120
C677        C  0.47091482  0.71787522  0.23357800    -0.25890
C678        C  0.49814494  0.74933379  0.24963222    -0.15130
C679        C  0.52538478  0.78047399  0.23256255     0.37200
N680        N  0.55417563  0.81258420  0.24849078    -0.89380
H681        H  0.54553438  0.80333905  0.18670021     0.18320
H682        H  0.44975436  0.69415447  0.24667422     0.18310
N683        N  0.44086028  0.68500746  0.18505322    -0.88410
H684        H  0.57190567  0.83307770  0.23254565     0.35690
H685        H  0.57065366  0.80400769  0.26038789     0.40780
H686        H  0.42444713  0.69379494  0.17332686     0.40400
H687        H  0.42313862  0.66454783  0.20102451     0.35290
C688        C  0.49455222  0.71790424  0.59938093     0.03010
C689        C  0.49553512  0.71825795  0.63215440    -0.13140
C690        C  0.49741986  0.74836263  0.64916554     0.00510
C691        C  0.49860328  0.77853726  0.63309962    -0.11670
C692        C  0.49763662  0.77860733  0.60050898     0.03000
C693        C  0.49640067  0.74875477  0.58380429    -0.11090
H694        H  0.49433439  0.69483700  0.64454893     0.08590
H695        H  0.49897235  0.80139077  0.64596506     0.06120
H696        H  0.49678419  0.74971819  0.55859520     0.05970
C697        C  0.49289489  0.71683414  0.83302110     0.03010
C698        C  0.49480425  0.71811416  0.80042012    -0.13140
C699        C  0.49746520  0.74893163  0.78422206     0.00510
C700        C  0.49786056  0.77838947  0.80113918    -0.11670
C701        C  0.49656259  0.77746094  0.83379718     0.03000
C702        C  0.49422722  0.74671047  0.84966996    -0.11090
H703        H  0.49400987  0.69497389  0.78769588     0.08590
H704        H  0.49871714  0.80180449  0.78897621     0.06120
H705        H  0.49258673  0.74565954  0.87489382     0.05970
C706        C  0.22203616  0.78641364  0.83320241     0.03010
C707        C  0.21715616  0.79031235  0.80137492    -0.13140
C708        C  0.18743185  0.76156835  0.78489405     0.00510
C709        C  0.15954412  0.73054168  0.80125823    -0.11670
C710        C  0.16346889  0.72618466  0.83327858     0.03000
C711        C  0.19570440  0.75357093  0.84855954    -0.11090
H712        H  0.23728844  0.81525166  0.78892341     0.08590
H713        H  0.13535735  0.70958210  0.78882917     0.06120
H714        H  0.20044374  0.74899339  0.87249042     0.05970
C715        C  0.22082643  0.78449298  0.60060904     0.03010
C716        C  0.21842772  0.78757180  0.63293675    -0.13140
C717        C  0.18771385  0.75989392  0.64988320     0.00510
C718        C  0.15928247  0.72909964  0.63395166    -0.11670
C719        C  0.16126494  0.72599493  0.60148045     0.03000
C720        C  0.19218449  0.75383707  0.58494717    -0.11090
H721        H  0.24068477  0.81139545  0.64490270     0.08590
H722        H  0.13624164  0.70685659  0.64690420     0.06120
H723        H  0.19405951  0.75159635  0.55990802     0.05970
C724        C  0.15845061  0.44355415  0.60130128     0.03010
C725        C  0.18773131  0.44312787  0.58465557    -0.13140
C726        C  0.21496933  0.43868249  0.60024813     0.00510
C727        C  0.21287944  0.43451047  0.63266282    -0.11670
C728        C  0.18469524  0.43643341  0.64977389     0.03000
C729        C  0.15715021  0.44039579  0.63392421    -0.11090
H730        H  0.18941114  0.44638722  0.55954478     0.08590
H731        H  0.23355546  0.43023256  0.64452356     0.06120
H732        H  0.13480077  0.44105901  0.64694687     0.05970
C733        C  0.15689285  0.44392445  0.83236066     0.03010
C734        C  0.15552164  0.43947957  0.79986635    -0.13140
C735        C  0.18060923  0.43129055  0.78430220     0.00510
C736        C  0.20795099  0.42830033  0.80121404    -0.11670
C737        C  0.21144415  0.43483967  0.83348883     0.03000
C738        C  0.18482750  0.44129039  0.84892607    -0.11090
H739        H  0.13536201  0.44306517  0.78644863     0.08590
H740        H  0.22681247  0.42144530  0.78890895     0.06120
H741        H  0.18615616  0.44480779  0.87391652     0.05970
C742        C  0.76586659  0.24456087  0.83308849     0.03010
C743        C  0.76713537  0.24174320  0.80059508    -0.13140
C744        C  0.74057005  0.20917775  0.78528605     0.00510
C745        C  0.71313828  0.17922986  0.80295518    -0.11670
C746        C  0.71103613  0.18215478  0.83538919     0.03000
C747        C  0.73778300  0.21481895  0.85035867    -0.11090
H748        H  0.78839203  0.26513876  0.78725587     0.08590
H749        H  0.69282819  0.15378378  0.79139578     0.06120
H750        H  0.73604631  0.21772770  0.87532358     0.05970
C751        C  0.76373975  0.24196685  0.60159961     0.03010
C752        C  0.76673216  0.23969717  0.63388827    -0.13140
C753        C  0.74048798  0.20776002  0.65035835     0.00510
C754        C  0.71107076  0.17825176  0.63406474    -0.11670
C755        C  0.70623792  0.18128233  0.60206269     0.03000
C756        C  0.73331433  0.21307532  0.58588018    -0.11090
H757        H  0.78916420  0.26305373  0.64611981     0.08590
H758        H  0.69136018  0.15320063  0.64660873     0.06120
H759        H  0.73032689  0.21598977  0.56116021     0.05970
C760        C  0.70126803  0.52981932  0.59952018     0.03010
C761        C  0.72572370  0.51907958  0.58603872    -0.13140
C762        C  0.75558842  0.52142164  0.60295637     0.00510
C763        C  0.75807058  0.52948386  0.63476553    -0.11670
C764        C  0.73456396  0.54106150  0.64921289     0.03000
C765        C  0.70836287  0.54408175  0.63013564    -0.11090
H766        H  0.72219335  0.50944302  0.56218194     0.08590
H767        H  0.77872371  0.52642021  0.64773484     0.06120
H768        H  0.69337753  0.55758534  0.63861813     0.05970
C769        C  0.69668429  0.51926572  0.83334207     0.03010
C770        C  0.70097225  0.52529831  0.80106231    -0.13140
C771        C  0.73646065  0.54077654  0.78602338     0.00510
C772        C  0.76716394  0.54754222  0.80500978    -0.11670
C773        C  0.76183007  0.53495531  0.83601540     0.03000
C774        C  0.72700863  0.52287391  0.85050435    -0.11090
H775        H  0.67572159  0.51758347  0.78833638     0.08590
H776        H  0.79561696  0.56270976  0.79674953     0.06120
H777        H  0.72374571  0.51662258  0.87517681     0.05970
C778        C  0.41459323  0.17784190  0.83188876     0.03010
C779        C  0.41748652  0.20878125  0.84821483    -0.13140
C780        C  0.41190965  0.23555852  0.83301745     0.00510
C781        C  0.40434715  0.23219015  0.80114541    -0.11670
C782        C  0.40371301  0.20288010  0.78393855     0.03000
C783        C  0.40774199  0.17519506  0.79961058    -0.11090
H784        H  0.42479347  0.21258849  0.87264728     0.08590
H785        H  0.40041106  0.25327623  0.78953879     0.06120
H786        H  0.40662719  0.15218594  0.78647218     0.05970
C787        C  0.41195379  0.17661447  0.60043948     0.03010
C788        C  0.40618990  0.17413281  0.63286009    -0.13140
C789        C  0.40131065  0.20120897  0.64892064     0.00510
C790        C  0.40198348  0.23076031  0.63211673    -0.11670
C791        C  0.40736253  0.23331949  0.59973201     0.03000
C792        C  0.41197511  0.20602039  0.58403580    -0.11090
H793        H  0.40734347  0.15216880  0.64573651     0.08590
H794        H  0.39931438  0.25238599  0.64432817     0.06120
H795        H  0.41620633  0.20807460  0.55900382     0.05970
C796        C  0.47827777  0.58733399  0.89701458     0.42340
N797        N  0.48924329  0.55330798  0.92783394     0.01230
C798        C  0.40492430  0.35990281  0.93051799    -0.06650
H799        H  0.31370725  0.40787786  0.94840330     0.06720
C800        C  0.38429835  0.47439183  0.54626305    -0.07000
Co801      Co  0.44912628  0.47271534  0.90937069     0.74180
N802        N  0.37221896  0.43550895  0.93709548    -0.26180
Co803      Co  0.39516296  0.41710039  0.97082540     0.74070
C804        C  0.34525939  0.45325256  0.53649292     0.42440
N805        N  0.47484480  0.53680782  0.52086484     0.00840
N806        N  0.37843145  0.44029052  0.50600755     0.00950
N807        N  0.44096404  0.39702639  0.89091383    -0.47030
H808        H  0.43725025  0.53623248  0.86800504     0.06700
N809        N  0.39249764  0.45691583  0.91371475     0.01230
N810        N  0.41919092  0.39967659  0.50441462     0.00970
C811        C  0.43092567  0.36562134  0.53444316     0.42580
N812        N  0.49466258  0.55776029  0.49702449    -0.25640
C813        C  0.52401720  0.47824590  0.88637107    -0.06560
N814        N  0.49845301  0.58837085  0.92192082    -0.46740
N815        N  0.41013091  0.36458837  0.51004195    -0.46970
C816        C  0.56294477  0.49863769  0.89636837     0.42350
N817        N  0.43396816  0.41631808  0.91202861     0.01220
N818        N  0.53612858  0.51788596  0.49527670    -0.25660
N819        N  0.46468925  0.52927441  0.90797811    -0.26150
N820        N  0.51629998  0.49641925  0.51876683     0.00860
H821        H  0.59427481  0.54692466  0.98366639     0.06750
H822        H  0.47169002  0.41635464  0.56388397     0.06780
N823        N  0.41306995  0.39525721  0.93538061    -0.26200
N824        N  0.40278334  0.46448807  0.52594102    -0.25810
N825        N  0.53009248  0.51242600  0.92665395     0.01220
C826        C  0.33643708  0.44562126  0.90455801     0.42620
C827        C  0.50153732  0.59282964  0.50153953    -0.07060
N828        N  0.44390502  0.42362986  0.52427038    -0.25810
H829        H  0.39650367  0.49334103  0.56567750     0.06770
N830        N  0.37218626  0.46342654  0.89361950    -0.47030
H831        H  0.51817692  0.61654775  0.98648557     0.06760
C832        C  0.57294175  0.50927010  0.52758470     0.42460
C833        C  0.45566617  0.54816790  0.88770897    -0.06560
Co834      Co  0.51305963  0.53596829  0.96160946     0.73820
N835        N  0.46813038  0.55602511  0.54225798    -0.46750
C836        C  0.42364452  0.36131069  0.90120676     0.42720
N837        N  0.56481076  0.51976832  0.92105023    -0.46740
Co838      Co  0.45956636  0.48031223  0.52324829     0.73890
C839        C  0.45312262  0.40460457  0.54425001    -0.07070
C840        C  0.33651400  0.42672142  0.93336528    -0.06630
N841        N  0.50572803  0.48837698  0.90667618    -0.26160
N842        N  0.34359804  0.43234656  0.51177912    -0.46920
H843        H  0.38735316  0.33615292  0.94525022     0.06730
C844        C  0.57202989  0.52752737  0.49875908    -0.07040
Cl845      Cl  0.45420388  0.47654123  0.96629413    -0.50050
C846        C  0.48372508  0.59138574  0.53136079     0.42490
H847        H  0.51170169  0.45941970  0.86689941     0.06700
N848        N  0.53731402  0.49094196  0.53890436    -0.46760
C849        C  0.04716187  0.59641035  0.53723959     0.42340
N850        N  0.00059827  0.56351690  0.50766190     0.01230
C851        C  0.89174172  0.37031048  0.50311273    -0.06650
H852        H  0.03335855  0.42109453  0.98597841     0.06720
C853        C  0.02661011  0.48565708  0.88747082    -0.07000
Co854      Co  0.95973023  0.48255486  0.52567443     0.74180
N855        N  0.00046143  0.44656929  0.49793868    -0.26180
Co856      Co  0.95961737  0.42866580  0.96379133     0.74070
C857        C  0.04515872  0.46515469  0.89713192     0.42440
N858        N  0.99953988  0.54841701  0.91493139     0.00840
N859        N  0.00011135  0.45278502  0.92883061     0.00950
N860        N  0.89225891  0.40627048  0.54326007    -0.47030
H861        H  0.03637470  0.54503497  0.56624428     0.06700
N862        N  0.00057192  0.46686678  0.52176969     0.01230
N863        N  0.91849703  0.41149202  0.92998171     0.00970
C864        C  0.87456144  0.37677196  0.89848691     0.42580
N865        N  0.99975908  0.56898213  0.93858493    -0.25640
C866        C  0.88960314  0.48690604  0.54793506    -0.06560
N867        N  0.02752479  0.59828676  0.51308115    -0.46740
N868        N  0.89338232  0.37633242  0.92383639    -0.46970
C869        C  0.87145542  0.50780126  0.53833327     0.42350
N870        N  0.91878556  0.42617630  0.52244295     0.01220
N871        N  0.91861795  0.52910561  0.93991607    -0.25660
N872        N  0.00082114  0.53909526  0.52736114    -0.26150
N873        N  0.91737616  0.50792528  0.91637765     0.00860
H874        H  0.88856508  0.55736253  0.95156089     0.06750
H875        H  0.88441396  0.42786653  0.86922909     0.06780
N876        N  0.91911405  0.40576762  0.49884413    -0.26200
N877        N  0.99919922  0.47642760  0.90866062    -0.25810
N878        N  0.91881112  0.52277144  0.50863814     0.01220
C879        C  0.04460280  0.45487265  0.53166198     0.42620
C880        C  0.02778679  0.60411275  0.93449958    -0.07060
N881        N  0.91768357  0.43536865  0.91004523    -0.25810
H882        H  0.03230132  0.50380508  0.86757403     0.06770
N883        N  0.02643436  0.47239965  0.54254149    -0.47030
H884        H  0.03324110  0.62691318  0.94997669     0.06760
C885        C  0.87330882  0.52040945  0.90732176     0.42460
C886        C  0.02946140  0.55737385  0.54706539    -0.06560
Co887      Co  0.95949107  0.54677152  0.97381209     0.73820
N888        N  0.02665077  0.56787481  0.89444183    -0.46750
C889        C  0.87380385  0.37075423  0.53248703     0.42720
N890        N  0.89135050  0.52996487  0.51426960    -0.46740
Co891      Co  0.95827833  0.49206825  0.91175501     0.73890
C892        C  0.89049991  0.41606561  0.88928657    -0.07070
C893        C  0.02756353  0.43804576  0.50179801    -0.06630
N894        N  0.91865783  0.49799776  0.52813928    -0.26160
N895        N  0.02698363  0.44492451  0.92256489    -0.46920
H896        H  0.88584738  0.34707843  0.98789870     0.06730
C897        C  0.89216200  0.53852563  0.93629826    -0.07040
Cl898      Cl  0.95927422  0.48749247  0.96874821    -0.50050
C899        C  0.04610686  0.60339900  0.90523012     0.42490
H900        H  0.88250773  0.46721970  0.56689509     0.06700
N901        N  0.89087930  0.50227521  0.89621197    -0.46760
C902        C  0.48500374  0.89426456  0.53624384     0.42340
N903        N  0.49879697  0.94043251  0.50590286     0.01230
C904        C  0.41766983  0.05268393  0.50253408    -0.06650
H905        H  0.32482081  0.91153879  0.98530692     0.06720
C906        C  0.39635714  0.91721377  0.88702593    -0.07000
Co907      Co  0.45976444  0.98245068  0.52423043     0.74180
N908        N  0.38294677  0.94371442  0.49721738    -0.26180
Co909      Co  0.40657217  0.98454031  0.96276540     0.74310
C910        C  0.35648963  0.89992510  0.89528689     0.42440
N911        N  0.48455657  0.94175681  0.91352121     0.00840
N912        N  0.38931475  0.94402844  0.92781713     0.00950
N913        N  0.45197862  0.05019449  0.54241301    -0.47030
H914        H  0.44463920  0.90576654  0.56546213     0.06700
N915        N  0.40277862  0.94266969  0.52075402     0.01230
N916        N  0.43131413  0.02549369  0.92835935     0.00970
C917        C  0.44197719  0.06936105  0.89568988     0.42580
N918        N  0.50481199  0.94086887  0.93677369    -0.25640
C919        C  0.53599969  0.05003222  0.54670910    -0.06560
N920        N  0.50653381  0.91348093  0.51164718    -0.46740
N921        N  0.42213636  0.05112695  0.92144226    -0.46970
C922        C  0.57544849  0.06702088  0.53687877     0.42350
N923        N  0.44548388  0.02429187  0.52118497     0.01220
N924        N  0.54741041  0.02241399  0.93717424    -0.25660
N925        N  0.47418343  0.94059051  0.52578500    -0.26150
N926        N  0.52715390  0.02341603  0.91400876     0.00860
H927        H  0.60612794  0.05490739  0.94791587     0.06750
H928        H  0.48366509  0.05756054  0.86790126     0.06780
N929        N  0.42520014  0.02493905  0.49778278    -0.26200
N930        N  0.41410024  0.94413341  0.90814083    -0.25810
N931        N  0.54102010  0.02178734  0.50609951     0.01220
C932        C  0.34640741  0.89907352  0.53068531     0.42620
C933        C  0.51043914  0.91177814  0.93266796    -0.07060
N934        N  0.45585810  0.02527426  0.90854862    -0.25810
H935        H  0.41054768  0.91190622  0.86823026     0.06770
N936        N  0.38197899  0.91633242  0.54135590    -0.47030
H937        H  0.52650499  0.90419597  0.94773786     0.06760
C938        C  0.58289576  0.06805853  0.90385756     0.42460
C939        C  0.46369843  0.91218757  0.54593744    -0.06560
Co940      Co  0.52367420  0.98136203  0.97155800     0.73820
N941        N  0.47576721  0.91442758  0.89322357    -0.46750
C942        C  0.43587595  0.06956204  0.53184198     0.42720
N943        N  0.57607623  0.04772415  0.51169537    -0.46740
Co944      Co  0.47062392  0.98374788  0.91050887     0.73890
C945        C  0.46480485  0.05227886  0.88730755    -0.07070
C946        C  0.34714213  0.91697311  0.50116977    -0.06630
N947        N  0.51692918  0.02231764  0.52628273    -0.26160
N948        N  0.35453694  0.91815730  0.92094188    -0.46920
H949        H  0.40029758  0.05911377  0.98800427     0.06730
C950        C  0.58305932  0.04961843  0.93291365    -0.07040
Cl951      Cl  0.46514451  0.98305167  0.96729231    -0.50050
C952        C  0.49059953  0.89397990  0.90403644     0.42490
H953        H  0.52370018  0.05672174  0.56628664     0.06700
N954        N  0.54727135  0.04999452  0.89349451    -0.46760
C955        C  0.39092200  0.30910720  0.56565833    -0.26440
C956        C  0.42562688  0.33216805  0.55106618    -0.14510
C957        C  0.45378962  0.32211287  0.55183982     0.36120
C958        C  0.44661258  0.28949548  0.56765396    -0.25890
C959        C  0.41205120  0.26653636  0.58260613    -0.15130
C960        C  0.38369134  0.27642686  0.58145300     0.37200
N961        N  0.34699651  0.25360403  0.59491882    -0.89380
H962        H  0.36910944  0.31651888  0.56466359     0.18320
H963        H  0.46844924  0.28210454  0.56847481     0.18310
N964        N  0.48968426  0.34386186  0.53671887    -0.88410
H965        H  0.34420643  0.26846232  0.61354526     0.35690
H966        H  0.34332826  0.22845203  0.60377191     0.40780
H967        H  0.49206799  0.36737304  0.52550376     0.40400
H968        H  0.49179943  0.32715090  0.51934914     0.35290
C969        C  0.45529601  0.13433599  0.54702109    -0.26440
C970        C  0.42998260  0.09603806  0.55067167    -0.14510
C971        C  0.39922411  0.08397068  0.57153451     0.36120
C972        C  0.39432959  0.11076208  0.58785551    -0.25890
C973        C  0.41920908  0.14922333  0.58375581    -0.15130
C974        C  0.45047397  0.16112485  0.56356285     0.37200
N975        N  0.47737343  0.20030716  0.56019028    -0.89380
H976        H  0.47893627  0.14333998  0.53118253     0.18320
H977        H  0.37044811  0.10144916  0.60346933     0.18310
N978        N  0.37248685  0.04504539  0.57679349    -0.88410
H979        H  0.49860186  0.20431105  0.54443977     0.35690
H980        H  0.49017664  0.21003256  0.58177196     0.40780
H981        H  0.37895233  0.02744343  0.56396224     0.40400
H982        H  0.34645787  0.04019696  0.56897440     0.35290
C983        C  0.42471603  0.23398002  0.69933375    -0.26440
C984        C  0.39976140  0.20115260  0.68351182    -0.14510
C985        C  0.37510425  0.16886891  0.70081465     0.36120
C986        C  0.37651587  0.17001741  0.73359247    -0.25890
C987        C  0.40185490  0.20283589  0.74936681    -0.15130
C988        C  0.42633995  0.23512626  0.73194478     0.37200
N989        N  0.45366023  0.26865312  0.74736867    -0.89380
H990        H  0.44405222  0.25858566  0.68608963     0.18320
H991        H  0.35765919  0.14529045  0.74692304     0.18310
N992        N  0.34864145  0.13522001  0.68507468    -0.88410
H993        H  0.46932101  0.28985990  0.73121519     0.35690
H994        H  0.47246973  0.26256646  0.75851516     0.40780
H995        H  0.33001782  0.14101224  0.67325625     0.40400
H996        H  0.33265644  0.11403657  0.70115313     0.35290
C997        C  0.38309207  0.26783590  0.86026639    -0.26440
C998        C  0.41578039  0.26826867  0.85017846    -0.14510
C999        C  0.45127928  0.29982859  0.85642888     0.36120
C1000       C  0.45304617  0.33019016  0.87267705    -0.25890
C1001       C  0.42038095  0.32939443  0.88328461    -0.15130
C1002       C  0.38501692  0.29816009  0.87682832     0.37200
N1003       N  0.35127375  0.29767807  0.88662980    -0.89380
H1004       H  0.35601921  0.24372124  0.85516151     0.18320
H1005       H  0.48019076  0.35436595  0.87749746     0.18310
N1006       N  0.48591658  0.30234488  0.84638288    -0.88410
H1007       H  0.32762886  0.27262124  0.88005411     0.35690
H1008       H  0.35005535  0.31912642  0.87471272     0.40780
H1009       H  0.48151229  0.27889016  0.83368790     0.40400
H1010       H  0.50068552  0.30316362  0.86632472     0.35290
C1011       C  0.44353532  0.13708512  0.83386779    -0.26440
C1012       C  0.42093454  0.14957685  0.84815279    -0.14510
C1013       C  0.40497317  0.13511004  0.87772245     0.36120
C1014       C  0.41320122  0.10982845  0.89268602    -0.25890
C1015       C  0.43574382  0.09714954  0.87842348    -0.15130
C1016       C  0.45038176  0.11045717  0.84819506     0.37200
N1017       N  0.47142320  0.09659692  0.83164608    -0.89380
H1018       H  0.45587554  0.14805117  0.81120427     0.18320
H1019       H  0.40129553  0.09950547  0.91558905     0.18310
N1020       N  0.37985798  0.14550168  0.89225063    -0.88410
H1021       H  0.48168224  0.11072478  0.81048583     0.35690
H1022       H  0.45268770  0.06870097  0.82592121     0.40780
H1023       H  0.35610648  0.13542530  0.87826504     0.40400
H1024       H  0.37065645  0.13249475  0.91395878     0.35290
C1025       C  0.61102105  0.48044203  0.88734768    -0.26440
C1026       C  0.59589423  0.50303218  0.87914678    -0.14510
C1027       C  0.61307172  0.52996743  0.85521656     0.36120
C1028       C  0.64548882  0.53414264  0.84062446    -0.25890
C1029       C  0.66113243  0.51189080  0.84893589    -0.15130
C1030       C  0.64328043  0.48440875  0.87230708     0.37200
N1031       N  0.65726084  0.45998378  0.88041284    -0.89380
H1032       H  0.59769641  0.45957157  0.90553098     0.18320
H1033       H  0.65904013  0.55565212  0.82295560     0.18310
N1034       N  0.59911538  0.55411442  0.84552891    -0.88410
H1035       H  0.66331069  0.46315073  0.90419653     0.35690
H1036       H  0.63594382  0.43240940  0.87668464     0.40780
H1037       H  0.57531692  0.54928726  0.85813287     0.40400
H1038       H  0.59093252  0.54784287  0.82229577     0.35290
C1039       C  0.83543688  0.50970465  0.85968972    -0.26440
C1040       C  0.84439499  0.52454807  0.88990172    -0.14510
C1041       C  0.82587916  0.54305200  0.90225816     0.36120
C1042       C  0.80079815  0.54796549  0.88351949    -0.25890
C1043       C  0.79214051  0.53328107  0.85329012    -0.15130
C1044       C  0.80935965  0.51328511  0.84158779     0.37200
N1045       N  0.79965123  0.49457211  0.81210244    -0.89380
H1046       H  0.84849144  0.49465373  0.84997658     0.18320
H1047       H  0.78699883  0.56244719  0.89292316     0.18310
N1048       N  0.83141429  0.55583225  0.93393997    -0.88410
H1049       H  0.80806011  0.51442761  0.79436054     0.35690
H1050       H  0.77058322  0.47693394  0.81134930     0.40780
H1051       H  0.82006038  0.53210446  0.94823975     0.40400
H1052       H  0.81640929  0.56955922  0.93895497     0.35290
C1053       C  0.67179175  0.53111924  0.54901373    -0.26440
C1054       C  0.66849523  0.52583846  0.58147448    -0.14510
C1055       C  0.63313991  0.51412691  0.59562795     0.36120
C1056       C  0.60288353  0.50942595  0.57752201    -0.25890
C1057       C  0.60632812  0.51483379  0.54513020    -0.15130
C1058       C  0.64128667  0.52486501  0.53075131     0.37200
N1059       N  0.64676441  0.52734623  0.49768441    -0.89380
H1060       H  0.69839955  0.54015224  0.53735716     0.18320
H1061       H  0.57628734  0.50100698  0.58903844     0.18310
N1062       N  0.62713960  0.50547614  0.62817311    -0.88410
H1063       H  0.64789735  0.55171344  0.98964359     0.35690
H1064       H  0.62494168  0.50364056  0.98718217     0.40780
H1065       H  0.60587183  0.47758993  0.63064532     0.40400
H1066       H  0.61776101  0.52244581  0.63835715     0.35290
C1067       C  0.76998027  0.55592034  0.69975739    -0.26440
C1068       C  0.73706875  0.54823657  0.68396469    -0.14510
C1069       C  0.70660111  0.54424855  0.70247159     0.36120
C1070       C  0.70976167  0.54735113  0.73497529    -0.25890
C1071       C  0.73994728  0.54802620  0.75098006    -0.15130
C1072       C  0.77089936  0.55304424  0.73227428     0.37200
N1073       N  0.80307195  0.55368129  0.74521660    -0.89380
H1074       H  0.79521440  0.56222700  0.68698560     0.18320
H1075       H  0.68679772  0.54731120  0.74728207     0.18310
N1076       N  0.67129548  0.53497413  0.68912108    -0.88410
H1077       H  0.80575981  0.53193262  0.73526895     0.35690
H1078       H  0.82682216  0.57906185  0.73913810     0.40780
H1079       H  0.65066363  0.50965064  0.69878469     0.40400
H1080       H  0.66498013  0.55580585  0.69522715     0.35290
C1081       C  0.77610718  0.48521142  0.56941804    -0.26440
C1082       C  0.78545074  0.51738051  0.58705642    -0.14510
C1083       C  0.82320440  0.54656359  0.58825904     0.36120
C1084       C  0.85088617  0.54267043  0.57217192    -0.25890
C1085       C  0.84152894  0.51037903  0.55493892    -0.15130
C1086       C  0.80394752  0.48137991  0.55338511     0.37200
N1087       N  0.79415906  0.44878490  0.53479064    -0.89380
H1088       H  0.74708200  0.46309926  0.56822835     0.18320
H1089       H  0.87988903  0.56494189  0.57295530     0.18310
N1090       N  0.83312472  0.58031131  0.60530137    -0.88410
H1091       H  0.76522146  0.43033078  0.53569204     0.35690
H1092       H  0.80673311  0.43479483  0.54481115     0.40780
H1093       H  0.82025158  0.59359029  0.59445213     0.40400
H1094       H  0.86202599  0.59884326  0.60397079     0.35290
C1095       C  0.60521125  0.10851674  0.58258913    -0.26440
C1096       C  0.60932975  0.09668154  0.55283233    -0.14510
C1097       C  0.64576523  0.11343286  0.53924690     0.36120
C1098       C  0.67662418  0.14034882  0.55582511    -0.25890
C1099       C  0.67249550  0.15193573  0.58565249    -0.15130
C1100       C  0.63611537  0.13623503  0.59891587     0.37200
N1101       N  0.63042158  0.14903811  0.62857974    -0.89380
H1102       H  0.57769978  0.09636338  0.59329521     0.18320
H1103       H  0.70424092  0.15217866  0.54523576     0.18310
N1104       N  0.65262351  0.10434972  0.00854790    -0.88410
H1105       H  0.60210065  0.13452402  0.63508809     0.35690
H1106       H  0.63785234  0.17713513  0.62604745     0.40780
H1107       H  0.63627751  0.10909646  0.99273236     0.40400
H1108       H  0.64547334  0.07621731  0.00797810     0.35290
C1109       C  0.79484002  0.30980710  0.58886514    -0.26440
C1110       C  0.79215464  0.27489892  0.58415167    -0.14510
C1111       C  0.81613266  0.27140464  0.56251352     0.36120
C1112       C  0.84220300  0.30298226  0.54559385    -0.25890
C1113       C  0.84502025  0.33805393  0.55016108    -0.15130
C1114       C  0.82087628  0.34145116  0.57186815     0.37200
N1115       N  0.82224693  0.37671331  0.57600219    -0.89380
H1116       H  0.77606870  0.31213703  0.60542452     0.18320
H1117       H  0.86090716  0.30026363  0.52925832     0.18310
N1118       N  0.81410804  0.23584218  0.55811452    -0.88410
H1119       H  0.80264033  0.37444562  0.59279057     0.35690
H1120       H  0.81408881  0.38305410  0.55497135     0.40780
H1121       H  0.82184196  0.22876853  0.57904024     0.40400
H1122       H  0.83360499  0.23794755  0.54128495     0.35290
C1123       C  0.64246083  0.14071860  0.84253148    -0.26440
C1124       C  0.67881632  0.15249727  0.85307372    -0.14510
C1125       C  0.68369576  0.13679616  0.88051888     0.36120
C1126       C  0.65200274  0.10980051  0.89696325    -0.25890
C1127       C  0.61547651  0.09788123  0.88644073    -0.15130
C1128       C  0.61075161  0.11389615  0.85893954     0.37200
N1129       N  0.57392684  0.10323618  0.84774966    -0.89380
H1130       H  0.63878230  0.15323851  0.82167348     0.18320
H1131       H  0.65609572  0.09773927  0.91785289     0.18310
N1132       N  0.72076693  0.14788634  0.89130939    -0.88410
H1133       H  0.57554382  0.11663250  0.82667505     0.35690
H1134       H  0.56148830  0.11289422  0.86385338     0.40780
H1135       H  0.73369314  0.13954165  0.87454466     0.40400
H1136       H  0.71950544  0.13379106  0.91188806     0.35290
C1137       C  0.77362629  0.21717953  0.73426986    -0.26440
C1138       C  0.74027786  0.20722833  0.75076659    -0.14510
C1139       C  0.70712399  0.19660390  0.73405630     0.36120
C1140       C  0.70784592  0.19623388  0.70148397    -0.25890
C1141       C  0.74117881  0.20656894  0.68489792    -0.15130
C1142       C  0.77431046  0.21678384  0.70154209     0.37200
N1143       N  0.80849139  0.22613075  0.68537157    -0.89380
H1144       H  0.79922238  0.22510291  0.74684743     0.18320
H1145       H  0.68227892  0.18889720  0.68907131     0.18310
N1146       N  0.67288709  0.18755981  0.75002224    -0.88410
H1147       H  0.81743384  0.20774733  0.69277999     0.35690
H1148       H  0.82875063  0.25322615  0.69188483     0.40780
H1149       H  0.65257193  0.16041794  0.74366791     0.40400
H1150       H  0.66407887  0.20596188  0.74237640     0.35290
C1151       C  0.82181371  0.34504280  0.86110986    -0.26440
C1152       C  0.84717657  0.34281680  0.88143876    -0.14510
C1153       C  0.84598084  0.30809702  0.88527151     0.36120
C1154       C  0.81888485  0.27640903  0.86940499    -0.25890
C1155       C  0.79366841  0.27876306  0.84923844    -0.15130
C1156       C  0.79493780  0.31325882  0.84501942     0.37200
N1157       N  0.76859033  0.31566468  0.82478830    -0.89380
H1158       H  0.82249156  0.37146131  0.85816561     0.18320
H1159       H  0.81776759  0.24975429  0.87233266     0.18310
N1160       N  0.87264780  0.30513439  0.90470682    -0.88410
H1161       H  0.77328132  0.34303551  0.82420768     0.35690
H1162       H  0.74180464  0.29897115  0.83436412     0.40780
H1163       H  0.89907098  0.32094317  0.89425115     0.40400
H1164       H  0.86725740  0.27752322  0.90547329     0.35290
C1165       C  0.23751335  0.42242522  0.88168163    -0.26440
C1166       C  0.24345117  0.43647890  0.85109570    -0.14510
C1167       C  0.28037040  0.45424085  0.83876315     0.36120
C1168       C  0.30977943  0.45642378  0.85657336    -0.25890
C1169       C  0.30390303  0.44274355  0.88723056    -0.15130
C1170       C  0.26733263  0.42657428  0.90022923     0.37200
N1171       N  0.26044524  0.41534128  0.93235531    -0.89380
H1172       H  0.20946181  0.40866576  0.89153621     0.18320
H1173       H  0.33764654  0.46959162  0.84631754     0.18310
N1174       N  0.28866454  0.47147423  0.80861293    -0.88410
H1175       H  0.23199028  0.40352910  0.93799898     0.35690
H1176       H  0.27458459  0.43959841  0.94581256     0.40780
H1177       H  0.30087992  0.45922817  0.79502421     0.40400
H1178       H  0.30839041  0.49985803  0.81123362     0.35290
C1179       C  0.11091827  0.48084424  0.88924917    -0.26440
C1180       C  0.07357314  0.46076017  0.87977478    -0.14510
C1181       C  0.06351606  0.43608876  0.85438892     0.36120
C1182       C  0.09115285  0.43109800  0.83935342    -0.25890
C1183       C  0.12886322  0.45097659  0.84876913    -0.15130
C1184       C  0.13892855  0.47696430  0.87357649     0.37200
N1185       N  0.17749743  0.49993783  0.88234870    -0.89380
H1186       H  0.11829440  0.50007798  0.90865161     0.18320
H1187       H  0.08302097  0.41107139  0.82050629     0.18310
N1188       N  0.02526804  0.41612855  0.84410460    -0.88410
H1189       H  0.17995313  0.51739805  0.90098169     0.35690
H1190       H  0.19180442  0.51741003  0.86347918     0.40780
H1191       H  0.00903875  0.39788713  0.86198222     0.40400
H1192       H  0.02261414  0.39947945  0.82479632     0.35290
C1193       C  0.15213364  0.40658098  0.69956112    -0.26440
C1194       C  0.18417030  0.43456053  0.68422565    -0.14510
C1195       C  0.21478106  0.46088907  0.70209440     0.36120
C1196       C  0.21300161  0.45820225  0.73451491    -0.25890
C1197       C  0.18111048  0.43023644  0.74989253    -0.15130
C1198       C  0.15016025  0.40400148  0.73217127     0.37200
N1199       N  0.11687620  0.37396425  0.74620504    -0.89380
H1200       H  0.12853874  0.38633758  0.68603839     0.18320
H1201       H  0.23643002  0.47889142  0.74794542     0.18310
N1202       N  0.24716229  0.49188437  0.68817750    -0.88410
H1203       H  0.09480227  0.37902099  0.74204810     0.35690
H1204       H  0.11929241  0.37289236  0.77028754     0.40780
H1205       H  0.23836893  0.50648558  0.67390252     0.40400
H1206       H  0.26157384  0.48199354  0.67467267     0.35290
C1207       C  0.27303799  0.47562033  0.56959701    -0.26440
C1208       C  0.24721711  0.44105891  0.58293637    -0.14510
C1209       C  0.25368588  0.41048457  0.58058536     0.36120
C1210       C  0.28602590  0.41552326  0.56519316    -0.25890
C1211       C  0.31215513  0.45027448  0.55240084    -0.15130
C1212       C  0.30543453  0.48068552  0.55428048     0.37200
N1213       N  0.33033500  0.51676816  0.54076722    -0.89380
H1214       H  0.26813026  0.49907815  0.57139275     0.18320
H1215       H  0.29089809  0.39204764  0.56331266     0.18310
N1216       N  0.22786612  0.37389174  0.59269991    -0.88410
H1217       H  0.31548198  0.52169487  0.52357605     0.35690
H1218       H  0.35321621  0.51739973  0.52952751     0.40780
H1219       H  0.20361703  0.37243780  0.60187868     0.40400
H1220       H  0.24113208  0.36846705  0.61094460     0.35290
C1221       C  0.09321363  0.47740181  0.57281090    -0.26440
C1222       C  0.07329977  0.45102356  0.54946228    -0.14510
C1223       C  0.08078834  0.42144208  0.54411363     0.36120
C1224       C  0.10896327  0.42000766  0.56118686    -0.25890
C1225       C  0.12898236  0.44655009  0.58420672    -0.15130
C1226       C  0.12099555  0.47549662  0.59022605     0.37200
N1227       N  0.14154833  0.50315756  0.61357680    -0.89380
H1228       H  0.08746558  0.49996498  0.57720971     0.18320
H1229       H  0.11487058  0.39750236  0.55700406     0.18310
N1230       N  0.05922349  0.39228602  0.52216695    -0.88410
H1231       H  0.13219479  0.52248882  0.61519175     0.35690
H1232       H  0.16958293  0.51809623  0.60628984     0.40780
H1233       H  0.03173581  0.37738137  0.53078035     0.40400
H1234       H  0.06888238  0.37318655  0.52069183     0.35290
C1235       C  0.06654373  0.65092594  0.57156641    -0.26440
C1236       C  0.07687039  0.62922217  0.55330183    -0.14510
C1237       C  0.11510330  0.63952018  0.55057210     0.36120
C1238       C  0.14205311  0.67138197  0.56628633    -0.25890
C1239       C  0.13175044  0.69292686  0.58490339    -0.15130
C1240       C  0.09359937  0.68269267  0.58749010     0.37200
N1241       N  0.08258405  0.70482453  0.60595403    -0.89380
H1242       H  0.03720121  0.64296635  0.57342074     0.18320
H1243       H  0.17133981  0.67920587  0.56417648     0.18310
N1244       N  0.12774201  0.61902072  0.53166251    -0.88410
H1245       H  0.05349101  0.69340244  0.60551585     0.35690
H1246       H  0.09432330  0.73129372  0.59562187     0.40780
H1247       H  0.10561262  0.59644892  0.52040076     0.40400
H1248       H  0.13965521  0.60781800  0.54649196     0.35290
C1249       C  0.24911299  0.84058478  0.56704994    -0.26440
C1250       C  0.25337828  0.81345489  0.58305986    -0.14510
C1251       C  0.28840587  0.81475794  0.58214345     0.36120
C1252       C  0.31803769  0.84294960  0.56474216    -0.25890
C1253       C  0.31360461  0.86971985  0.54805933    -0.15130
C1254       C  0.27865000  0.86866403  0.54972863     0.37200
N1255       N  0.27249155  0.89642051  0.53538977    -0.89380
H1256       H  0.22250965  0.84003302  0.56817394     0.18320
H1257       H  0.34472459  0.84365640  0.56397622     0.18310
N1258       N  0.29480995  0.78776576  0.59795584    -0.88410
H1259       H  0.27260924  0.89352098  0.51127433     0.35690
H1260       H  0.29380315  0.92300527  0.54197633     0.40780
H1261       H  0.27076761  0.76745870  0.60941961     0.40400
H1262       H  0.31491292  0.80201498  0.61506720     0.35290
C1263       C  0.12502974  0.70052216  0.88156584    -0.26440
C1264       C  0.13397647  0.69386755  0.85144106    -0.14510
C1265       C  0.11525840  0.65684864  0.83982585     0.36120
C1266       C  0.08677027  0.62808011  0.85787741    -0.25890
C1267       C  0.07758248  0.63489697  0.88793069    -0.15130
C1268       C  0.09823768  0.67148477  0.90030273     0.37200
N1269       N  0.09272787  0.67930425  0.93191591    -0.89380
H1270       H  0.13929897  0.72873346  0.89078923     0.18320
H1271       H  0.07187435  0.60001125  0.84840528     0.18310
N1272       N  0.12561287  0.64832678  0.81012752    -0.88410
H1273       H  0.10944239  0.70779625  0.93693439     0.35690
H1274       H  0.10203855  0.66525488  0.94633418     0.40780
H1275       H  0.15324571  0.65384922  0.81175420     0.40400
H1276       H  0.10910820  0.61982684  0.80505228     0.35290
C1277       C  0.21911154  0.76803218  0.70067164    -0.26440
C1278       C  0.18708517  0.76171756  0.68443535    -0.14510
C1279       C  0.15504634  0.75619446  0.70132299     0.36120
C1280       C  0.15560429  0.75640051  0.73413568    -0.25890
C1281       C  0.18767173  0.76249707  0.75029779    -0.15130
C1282       C  0.21970171  0.76817254  0.73330035     0.37200
N1283       N  0.25240031  0.77297702  0.74924617    -0.89380
H1284       H  0.24349502  0.77171316  0.68777406     0.18320
H1285       H  0.13109100  0.75210868  0.74717182     0.18310
N1286       N  0.12229561  0.75076498  0.68512823    -0.88410
H1287       H  0.27355200  0.77707324  0.73337464     0.35690
H1288       H  0.24488283  0.74805115  0.76109997     0.40780
H1289       H  0.12969957  0.77532530  0.67273478     0.40400
H1290       H  0.10122165  0.74706771  0.70093220     0.35290
C1291       C  0.29059326  0.83221171  0.83362937    -0.26440
C1292       C  0.25607940  0.81548930  0.84955526    -0.14510
C1293       C  0.25488593  0.82683460  0.88048263     0.36120
C1294       C  0.28828955  0.85361038  0.89477959    -0.25890
C1295       C  0.32290694  0.87040775  0.87876652    -0.15130
C1296       C  0.32352715  0.85958843  0.84742043     0.37200
N1297       N  0.35658114  0.87590092  0.82834432    -0.89380
H1298       H  0.29230906  0.82369887  0.81005151     0.18320
H1299       H  0.28707891  0.86179374  0.91857754     0.18310
N1300       N  0.21979835  0.81191254  0.89708378    -0.88410
H1301       H  0.37518166  0.86791650  0.83691366     0.35690
H1302       H  0.36839759  0.90499821  0.82814640     0.40780
H1303       H  0.20325544  0.82057114  0.88540303     0.40400
H1304       H  0.22384472  0.82305756  0.91955178     0.35290
C1305       C  0.52007058  0.68497224  0.86261845    -0.26440
C1306       C  0.48829300  0.68356597  0.84966084    -0.14510
C1307       C  0.45301752  0.65042960  0.85241992     0.36120
C1308       C  0.45067590  0.61926493  0.86757464    -0.25890
C1309       C  0.48240447  0.62066126  0.88067426    -0.15130
C1310       C  0.51757013  0.65377768  0.87802987     0.37200
N1311       N  0.55070947  0.65532765  0.89027962    -0.89380
H1312       H  0.54700376  0.71038562  0.86028868     0.18320
H1313       H  0.42363314  0.59393782  0.86964652     0.18310
N1314       N  0.41909421  0.64734589  0.84034508    -0.88410
H1315       H  0.57417983  0.68175610  0.88650507     0.35690
H1316       H  0.55542447  0.63628301  0.87768255     0.40780
H1317       H  0.42383592  0.67209414  0.82975132     0.40400
H1318       H  0.40109555  0.64282866  0.85924331     0.35290
C1319       C  0.46254085  0.80905876  0.85242705    -0.26440
C1320       C  0.49597606  0.80788627  0.85148898    -0.14510
C1321       C  0.52725740  0.83443838  0.86858351     0.36120
C1322       C  0.52419479  0.86152210  0.88610998    -0.25890
C1323       C  0.49081065  0.86293077  0.88694883    -0.15130
C1324       C  0.45930662  0.83584639  0.87022628     0.37200
N1325       N  0.42314985  0.83318588  0.87191932    -0.89380
H1326       H  0.43830519  0.78819160  0.83987928     0.18320
H1327       H  0.54856612  0.88230021  0.89855439     0.18310
N1328       N  0.56276363  0.83557497  0.86802205    -0.88410
H1329       H  0.41844466  0.84218691  0.85057771     0.35690
H1330       H  0.42160037  0.84996371  0.88941405     0.40780
H1331       H  0.56261119  0.81540554  0.85318660     0.40400
H1332       H  0.56766661  0.82935934  0.89047658     0.35290
C1333       C  0.51209577  0.66836788  0.59110601    -0.26440
C1334       C  0.49124518  0.68516282  0.58162449    -0.14510
C1335       C  0.46716411  0.67005375  0.55567792     0.36120
C1336       C  0.46584705  0.63988001  0.53921490    -0.25890
C1337       C  0.48648952  0.62329293  0.54897833    -0.15130
C1338       C  0.50959435  0.63731199  0.57524658     0.37200
N1339       N  0.53059547  0.62009884  0.58553454    -0.89380
H1340       H  0.53074951  0.67973456  0.61077472     0.18320
H1341       H  0.44785051  0.62854678  0.51912889     0.18310
N1342       N  0.44333908  0.68459253  0.54662074    -0.88410
H1343       H  0.54599011  0.63353950  0.60540637     0.35690
H1344       H  0.55008497  0.62401714  0.56804413     0.40780
H1345       H  0.42431568  0.67931507  0.56486503     0.40400
H1346       H  0.42747859  0.67039189  0.52715349     0.35290
C1347       C  0.52058984  0.87346986  0.56838088    -0.26440
C1348       C  0.48750392  0.86422498  0.55239548    -0.14510
C1349       C  0.45782532  0.82666869  0.55205821     0.36120
C1350       C  0.46220284  0.79927348  0.56757037    -0.25890
C1351       C  0.49509181  0.80855345  0.58385291    -0.15130
C1352       C  0.52458611  0.84597527  0.58438406     0.37200
N1353       N  0.55839301  0.85577013  0.60102893    -0.89380
H1354       H  0.54322923  0.90230380  0.56855240     0.18320
H1355       H  0.43953534  0.77044972  0.56717941     0.18310
N1356       N  0.42339906  0.81506834  0.53570552    -0.88410
H1357       H  0.57726626  0.88451385  0.59924940     0.35690
H1358       H  0.57119596  0.84224040  0.59016547     0.40780
H1359       H  0.42343548  0.83728961  0.52411890     0.40400
H1360       H  0.40174394  0.80529114  0.55226480     0.35290
C1361       C  0.52449622  0.77956473  0.69982405    -0.26440
C1362       C  0.49724918  0.74805715  0.68377772    -0.14510
C1363       C  0.46995620  0.71698646  0.70088909     0.36120
C1364       C  0.47091482  0.71787522  0.73357801    -0.25890
C1365       C  0.49814494  0.74933379  0.74963222    -0.15130
C1366       C  0.52538478  0.78047398  0.73256255     0.37200
N1367       N  0.55417563  0.81258419  0.74849078    -0.89380
H1368       H  0.54553437  0.80333904  0.68670022     0.18320
H1369       H  0.44975436  0.69415447  0.74667422     0.18310
N1370       N  0.44086028  0.68500746  0.68505322    -0.88410
H1371       H  0.57190567  0.83307770  0.73254565     0.35690
H1372       H  0.57065365  0.80400769  0.76038789     0.40780
H1373       H  0.42444713  0.69379494  0.67332686     0.40400
H1374       H  0.42313862  0.66454783  0.70102451     0.35290
loop_ 
_geom_bond_atom_site_label_1 
_geom_bond_atom_site_label_2 
_geom_bond_distance 
_geom_bond_site_symmetry_2 
_ccdc_geom_bond_type 
C1            C2   1.408       .  A
C1            C6   1.406       .  A
C1          C647   1.494       .  S
C2            C3   1.407       .  A
C2            H7   1.083       .  S
C3            C4   1.403       .  A
C3          C675   1.486       .  S
C4            C5   1.400       .  A
C4            H8   1.084       .  S
C5            C6   1.401       .  A
C5          C664   1.477       .  S
C6            H9   1.083       .  S
C10          C11   1.401       .  A
C10          C15   1.399       .  A
C10         C619   1.473       .  S
C11          C12   1.405       .  A
C11          H16   1.084       .  S
C12          C13   1.406       .  A
C12         C678   1.485       .  S
C13          C14   1.403       .  A
C13          H17   1.084       .  S
C14          C15   1.401       .  A
C14         C633   1.474       .  S
C15          H18   1.084       .  S
C19          C20   1.405       .  A
C19          C24   1.403       .  A
C19         C605   1.493       .  S
C20          C21   1.402       .  A
C20          H25   1.083       .  S
C21          C22   1.404       .  A
C21         C594   1.486       .  S
C22          C23   1.408       .  A
C22          H26   1.082       .  S
C23          C24   1.408       .  A
C23         C577   1.493       .  S
C24          H27   1.082       .  S
C28          C29   1.400       .  A
C28          C33   1.400       .  A
C28         C563   1.475       .  S
C29          C30   1.406       .  A
C29          H34   1.084       .  S
C30          C31   1.405       .  A
C30         C591   1.486       .  S
C31          C32   1.405       .  A
C31          H35   1.084       .  S
C32          C33   1.404       .  A
C32         C552   1.482       .  S
C33          H36   1.084       .  S
C37          C38   1.403       .  A
C37          C42   1.405       .  A
C37         C538   1.481       .  S
C38          C39   1.400       .  A
C38          H43   1.084       .  S
C39          C40   1.399       .  A
C39         C521   1.475       .  S
C40          C41   1.402       .  A
C40          H44   1.083       .  S
C41          C42   1.406       .  A
C41         C507   1.481       .  S
C42          H45   1.084       .  S
C46          C47   1.405       .  A
C46          C51   1.407       .  A
C46         C496   1.493       .  S
C47          C48   1.400       .  A
C47          H52   1.084       .  S
C48          C49   1.401       .  A
C48         C510   1.478       .  S
C49          C50   1.406       .  A
C49          H53   1.082       .  S
C50          C51   1.409       .  A
C50         C479   1.497       .  S
C51          H54   1.081       .  S
C55          C56   1.402       .  A
C55          C60   1.401       .  A
C55         C468   1.475       .  S
C56          C57   1.404       .  A
C56          H61   1.084       .  S
C57          C58   1.404       .  A
C57         C451   1.484       .  S
C58          C59   1.403       .  A
C58          H62   1.084       .  S
C59          C60   1.402       .  A
C59         C437   1.482       .  S
C60          H63   1.084       .  S
C64          C65   1.401       .  A
C64          C69   1.401       .  A
C64         C423   1.475       .  S
C65          C66   1.404       .  A
C65          H70   1.083       .  S
C66          C67   1.405       .  A
C66         C454   1.485       .  S
C67          C68   1.405       .  A
C67          H71   1.083       .  S
C68          C69   1.405       .  A
C68         C412   1.491       .  S
C69          H72   1.084       .  S
C73          C74   1.406       .  A
C73          C78   1.411       .  A
C73         C367   1.498       .  S
C74          C75   1.395       .  A
C74          H79   1.082       .  S
C75          C76   1.397       .  A
C75         C395   1.480       .  S
C76          C77   1.413       .  A
C76          H80   1.080       .  S
C77          C78   1.415       .  A
C77         C381   1.515       .  S
C78          H81   1.077       .  S
C82          C83   1.403       .  A
C82          C87   1.398       .  A
C82         C342   1.490       .  S
C83          C84   1.418       .  A
C83          H88   1.077       .  S
C84          C85   1.416       .  A
C84         C384   1.526       .  S
C85          C86   1.405       .  A
C85          H89   1.073       .  S
C86          C87   1.400       .  A
C86         C356   1.488       .  S
C87          H90   1.082       .  S
C91          C92   1.406       .  A
C91          C96   1.410       .  A
C91         C325   1.492       .  S
C92          C93   1.399       .  A
C92          H97   1.083       .  S
C93          C94   1.397       .  A
C93         C311   1.472       .  S
C94          C95   1.403       .  A
C94          H98   1.084       .  S
C95          C96   1.407       .  A
C95         C300   1.487       .  S
C96          H99   1.083       .  S
C100        C101   1.405       .  A
C100        C105   1.403       .  A
C100        C286   1.485       .  S
C101        C102   1.406       .  A
C101        H106   1.084       .  S
C102        C103   1.406       .  A
C102        C297   1.486       .  S
C103        C104   1.402       .  A
C103        H107   1.084       .  S
C104        C105   1.401       .  A
C104        C272   1.481       .  S
C105        H108   1.084       .  S
C109        C146   1.461       .  S
C109        C622   1.476       .  S
C109        N127   1.348       .  A
N110        N127   1.323       .  A
N110        N132   1.320       .  A
N110       Co147   2.076       .  S
C111        C149   1.455       .  S
C111        H156   1.081       .  S
C111        N136   1.338       .  A
H112        C153   1.079       .  S
C113        C117   1.459       .  S
C113        H142   1.081       .  S
C113        N137   1.342       .  A
Co114       N132   2.087       .  S
Co114       N122   2.090       .  S
Co114       N154   2.086       .  S
Co114       N130   2.088       .  S
Co114      Cl158   2.453       .  S
N115        C153   1.338       .  A
N115        N122   1.318       .  A
N115       Co116   2.077       .  S
Co116       N136   2.074       .  S
Co116       N806   2.073       .  S
Co116       N810   2.078       .  S
Co116      Cl158   2.448       .  S
C117        C524   1.467       .  S
C117        N155   1.345       .  A
N118        N125   1.321   1_554  A
N118        N148   1.325       .  A
N118       Co151   2.090       .  S
N119        N137   1.321       .  A
N119        N155   1.322       .  A
N119       Co803   2.073   1_554  S
N120        C149   1.349       .  A
N120        N130   1.325       .  A
H121        C146   1.082       .  S
N122        N143   1.325       .  A
N123        N141   1.321       .  A
N123        N128   1.323       .  A
N123       Co803   2.078   1_554  S
C124        C152   1.460       .  S
C124        C269   1.470       .  S
C124        N128   1.346       .  A
N125        C140   1.341   1_556  A
N125       Co834   2.083       .  S
C126        C129   1.457       .  S
C126        H160   1.081       .  S
C126        N154   1.342       .  A
C129        C339   1.468       .  S
C129        N150   1.348       .  A
N130        N136   1.320       .  A
N131        C157   1.335       .  A
N131        N133   1.317   1_556  A
N131       Co834   2.070       .  S
N132        C146   1.342       .  A
N133        N161   1.326       .  A
N133       Co151   2.091       .  S
H134        C844   1.076       .  S
H135        C152   1.081       .  S
N137       Co151   2.091       .  S
N138        N150   1.324       .  A
N138        N154   1.320       .  A
N138       Co147   2.082       .  S
C139        C153   1.465       .  S
C139        C482   1.490       .  S
C139        N143   1.355       .  A
C140        C159   1.456       .  S
C140        H831   1.081   1_554  S
N141        C152   1.343       .  A
N141       Co151   2.091       .  S
H144        C827   1.081       .  S
C145        C157   1.461   1_554  S
C145        C370   1.488       .  S
C145        N161   1.356       .  A
Co147       N812   2.083       .  S
Co147       N818   2.070       .  S
Co147      Cl158   2.445       .  S
N148        C159   1.349       .  A
C149        C314   1.470       .  S
Co151      Cl845   2.455   1_554  S
C157        H821   1.076       .  S
Cl158      Co838   2.455       .  S
C159        C650   1.470       .  S
C162        C199   1.458       .  S
C162        C549   1.469       .  S
C162        N180   1.347       .  A
N163        N180   1.324       .  A
N163        N185   1.320       .  A
N163       Co887   2.080   1_454  S
C164        C202   1.460       .  S
C164        H896   1.081   1_554  S
C164        N189   1.339   1_554  A
H165        C893   1.080       .  S
C166        C170   1.457       .  S
C166        H195   1.081       .  S
C166        N190   1.341   1_455  A
Co167       N185   2.089   1_655  S
Co167       N175   2.086   1_655  S
Co167       N207   2.084       .  S
Co167       N183   2.086       .  S
Co167      Cl898   2.454   1_554  S
N168        C206   1.338   1_556  A
N168        N175   1.318   1_556  A
N168       Co856   2.079   1_455  S
Co169       N172   2.080   1_655  S
Co169       N176   2.078       .  S
Co169       N855   2.079   1_655  S
Co169       N876   2.080       .  S
Co169      Cl211   2.440       .  S
C170        C493   1.466       .  S
C170        N208   1.347       .  A
N171        N178   1.318       .  A
N171        N201   1.324   1_655  A
N171       Co204   2.088       .  S
N172        N190   1.320   1_455  A
N172        N208   1.324       .  A
N173        C202   1.351       .  A
N173        N183   1.325       .  A
H174        C199   1.081       .  S
N175        N196   1.325       .  A
N176        N194   1.320       .  A
N176        N181   1.321       .  A
C177        C205   1.465       .  S
C177        C465   1.483       .  S
C177        N181   1.347       .  A
N178        C193   1.337   1_655  A
N178       Co200   2.078       .  S
C179        C182   1.456       .  S
C179        H213   1.081       .  S
C179        N207   1.341       .  A
C182        C398   1.466       .  S
C182        N203   1.347       .  A
N183        N189   1.319   1_554  A
N184        C210   1.337       .  A
N184        N186   1.318       .  A
N184       Co200   2.073       .  S
N185        C199   1.342       .  A
N186        N214   1.325       .  A
N186       Co204   2.096       .  S
H187        C210   1.079       .  S
H188        C205   1.081       .  S
N189       Co856   2.080       .  S
N190       Co204   2.085       .  S
N191        N203   1.324       .  A
N191        N207   1.320       .  A
N191       Co887   2.080   1_554  S
C192        C206   1.464       .  S
C192        C535   1.487       .  S
C192        N196   1.353       .  A
C193        C212   1.467       .  S
C193        H197   1.079       .  S
N194        C205   1.344       .  A
N194       Co204   2.088       .  S
C198        C210   1.463       .  S
C198        C353   1.492       .  S
C198        N214   1.356       .  A
Co200       N850   2.080   1_655  S
Co200       N878   2.080       .  S
Co200      Cl211   2.448       .  S
N201        C212   1.353       .  A
C202        C426   1.480       .  S
Co204      Cl211   2.457       .  S
C206        H852   1.080   1_554  S
H209        C851   1.081       .  S
Cl211      Co854   2.454       .  S
C212        C580   1.491       .  S
C215        C252   1.458       .  S
C215        C661   1.469       .  S
C215        N233   1.347       .  A
N216        N233   1.324       .  A
N216        N238   1.321       .  A
N216       Co940   2.081   1_554  S
C217        C255   1.456       .  S
C217        H949   1.081   1_554  S
C217        N242   1.340   1_554  A
H218        C946   1.079       .  S
C219        C223   1.466       .  S
C219        H248   1.076       .  S
C219        N243   1.336       .  A
Co220       N238   2.087       .  S
Co220       N228   2.092       .  S
Co220       N260   2.094   1_565  S
Co220       N236   2.086   1_565  S
Co220      Cl951   2.452   1_554  S
N221        C259   1.338   1_556  A
N221        N228   1.319   1_556  A
N221       Co909   2.078       .  S
Co222       N225   2.089       .  S
Co222       N229   2.083   1_565  S
Co222       N908   2.078       .  S
Co222       N929   2.086   1_565  S
Co222      Cl264   2.452       .  S
C223        C608   1.493       .  S
C223        N261   1.356       .  A
N224        N231   1.319       .  A
N224        N254   1.324       .  A
N224       Co257   2.082       .  S
N225        N243   1.317       .  A
N225        N261   1.325       .  A
N226        C255   1.349       .  A
N226        N236   1.325       .  A
H227        C252   1.081       .  S
N228        N249   1.326       .  A
N229        N247   1.318       .  A
N229        N234   1.323       .  A
C230        C258   1.470       .  S
C230        C328   1.493       .  S
C230        N234   1.353       .  A
N231        C246   1.341       .  A
N231       Co253   2.081       .  S
C232        C235   1.469       .  S
C232        H266   1.081       .  S
C232        N260   1.342       .  A
C235        C409   1.490       .  S
C235        N256   1.348       .  A
N236        N242   1.321   1_554  A
N237        C263   1.340       .  A
N237        N239   1.318       .  A
N237       Co253   2.082   1_545  S
N238        C252   1.342       .  A
N239        N267   1.322       .  A
N239       Co257   2.077   1_545  S
H240        C263   1.081       .  S
H241        C258   1.079       .  S
N242       Co909   2.086   1_545  S
N243       Co257   2.073       .  S
N244        N256   1.322       .  A
N244        N260   1.319       .  A
N244       Co940   2.074   1_544  S
C245        C259   1.461       .  S
C245        C566   1.483       .  S
C245        N249   1.353       .  A
C246        C265   1.460       .  S
C246        H250   1.081       .  S
N247        C258   1.341       .  A
N247       Co257   2.085   1_545  S
C251        C263   1.465       .  S
C251        C440   1.486       .  S
C251        N267   1.350       .  A
Co253       N903   2.081       .  S
Co253       N931   2.074   1_565  S
Co253      Cl264   2.453       .  S
N254        C265   1.349       .  A
C255        C283   1.469       .  S
Co257      Cl264   2.445       .  S
C259        H905   1.079   1_554  S
H262        C904   1.081       .  S
Cl264      Co907   2.452       .  S
C265        C636   1.477       .  S
C268        C269   1.403       .  A
C268        C273   1.402       .  A
C268        H275   1.084       .  S
C269        C270   1.413       .  A
C270        C271   1.400       .  A
C270        N277   1.439       .  S
C271        C272   1.405       .  A
C271        H276   1.084       .  S
C272        C273   1.417       .  A
C273        N274   1.438       .  S
N274        H278   1.046       .  S
N274        H279   1.043       .  S
N277        H280   1.043       .  S
N277        H281   1.046       .  S
C282        C283   1.399       .  A
C282        C287   1.405       .  A
C282        H289   1.084       .  S
C283        C284   1.416       .  A
C284        C285   1.402       .  A
C284        N291   1.439       .  S
C285        C286   1.404       .  A
C285        H290   1.084       .  S
C286        C287   1.414       .  A
C287        N288   1.438       .  S
N288        H292   1.046       .  S
N288        H293   1.046       .  S
N291        H294   1.043       .  S
N291        H295   1.046       .  S
C296        C297   1.403       .  A
C296        C301   1.402       .  A
C296        H303   1.084       .  S
C297        C298   1.413       .  A
C298        C299   1.409       .  A
C298        N305   1.438       .  S
C299        C300   1.405       .  A
C299        H304   1.084       .  S
C300        C301   1.414       .  A
C301        N302   1.439       .  S
N302        H306   1.046       .  S
N302        H307   1.046       .  S
N305        H308   1.046       .  S
N305        H309   1.046       .  S
C310        C311   1.401       .  A
C310        C315   1.404       .  A
C310        H317   1.084       .  S
C311        C312   1.416       .  A
C312        C313   1.401       .  A
C312        N319   1.439       .  S
C313        C314   1.400       .  A
C313        H318   1.084       .  S
C314        C315   1.410       .  A
C315        N316   1.438       .  S
N316        H320   1.046       .  S
N316        H321   1.046       .  S
N319        H322   1.043       .  S
N319        H323   1.046       .  S
C324        C325   1.404       .  A
C324        C329   1.407       .  A
C324        H331   1.083       .  S
C325        C326   1.413       .  A
C326        C327   1.405       .  A
C326        N333   1.438       .  S
C327        C328   1.407       .  A
C327        H332   1.083       .  S
C328        C329   1.417       .  A
C329        N330   1.435       .  S
N330        H334   1.046       .  S
N330        H335   1.046       .  S
N333        H336   1.046       .  S
N333        H337   1.046       .  S
C338        C339   1.401       .  A
C338        C343   1.405       .  A
C338        H345   1.084       .  S
C339        C340   1.413       .  A
C340        C341   1.399       .  A
C340        N347   1.439       .  S
C341        C342   1.407       .  A
C341        H346   1.084       .  S
C342        C343   1.411       .  A
C343        N344   1.432       .  S
N344        H348   1.046       .  S
N344        H349   1.045       .  S
N347        H350   1.043       .  S
N347        H351   1.046       .  S
C352        C353   1.404       .  A
C352        C357   1.397       .  A
C352        H359   1.084       .  S
C353        C354   1.419       .  A
C354        C355   1.407       .  A
C354        N361   1.436       .  S
C355        C356   1.402       .  A
C355        H360   1.084       .  S
C356        C357   1.417       .  A
C357        N358   1.433       .  S
N358        H362   1.042       .  S
N358        H363   1.045       .  S
N361        H364   1.046       .  S
N361        H365   1.046       .  S
C366        C367   1.406       .  A
C366        C371   1.397       .  A
C366        H373   1.083       .  S
C367        C368   1.415       .  A
C368        C369   1.403       .  A
C368        N375   1.432       .  S
C369        C370   1.404       .  A
C369        H374   1.084       .  S
C370        C371   1.419       .  A
C371        N372   1.431   1_554  S
N372       H1063   1.042       .  S
N372       H1064   1.046       .  S
N375        H378   1.045       .  S
N375        H379   1.046       .  S
H376       N1059   1.042       .  S
H377       N1059   1.046       .  S
C380        C381   1.408       .  A
C380        C385   1.404       .  A
C380        H387   1.080       .  S
C381        C382   1.417       .  A
C382        C383   1.402       .  A
C382        N389   1.431       .  S
C383        C384   1.414       .  A
C383        H388   1.078       .  S
C384        C385   1.424       .  A
C385        N386   1.429       .  S
N386        H390   1.046       .  S
N386        H391   1.046       .  S
N389        H392   1.046       .  S
N389        H393   1.046       .  S
C394        C395   1.403       .  A
C394        C399   1.406       .  A
C394        H401   1.084       .  S
C395        C396   1.414       .  A
C396        C397   1.403       .  A
C396        N403   1.438       .  S
C397        C398   1.398       .  A
C397        H402   1.084       .  S
C398        C399   1.407       .  A
C399        N400   1.436       .  S
N400        H404   1.046       .  S
N400        H405   1.044       .  S
N403        H406   1.046       .  S
N403        H407   1.046       .  S
C408        C409   1.405       .  A
C408        C413   1.406       .  A
C408        H415   1.081       .  S
C409        C410   1.420       .  A
C410        C411   1.399       .  A
C410       N1104   1.433       .  S
C411        C412   1.404       .  A
C411        H416   1.084       .  S
C412        C413   1.415       .  A
C413        N414   1.438       .  S
N414        H418   1.046       .  S
N414        H419   1.045       .  S
N417       C1097   1.433       .  S
N417        H420   1.046       .  S
N417        H421   1.044       .  S
C422        C423   1.401       .  A
C422        C427   1.406       .  A
C422        H429   1.084       .  S
C423        C424   1.408       .  A
C424        C425   1.403       .  A
C424        N431   1.438       .  S
C425        C426   1.405       .  A
C425        H430   1.083       .  S
C426        C427   1.413       .  A
C427        N428   1.437       .  S
N428        H432   1.046       .  S
N428        H433   1.045       .  S
N431        H434   1.046       .  S
N431        H435   1.046       .  S
C436        C437   1.402       .  A
C436        C441   1.403       .  A
C436        H443   1.084       .  S
C437        C438   1.410       .  A
C438        C439   1.406       .  A
C438        N445   1.438       .  S
C439        C440   1.407       .  A
C439        H444   1.081       .  S
C440        C441   1.416       .  A
C441        N442   1.438       .  S
N442        H446   1.046       .  S
N442        H447   1.046       .  S
N445        H448   1.046       .  S
N445        H449   1.046       .  S
C450        C451   1.405       .  A
C450        C455   1.405       .  A
C450        H457   1.084       .  S
C451        C452   1.410       .  A
C452        C453   1.399       .  A
C452        N459   1.433       .  S
C453        C454   1.404       .  A
C453        H458   1.084       .  S
C454        C455   1.411       .  A
C455        N456   1.432       .  S
N456        H460   1.045       .  S
N456        H461   1.046       .  S
N459        H462   1.046       .  S
N459        H463   1.045       .  S
C464        C465   1.405       .  A
C464        C469   1.407       .  A
C464        H471   1.083       .  S
C465        C466   1.417       .  A
C466        C467   1.403       .  A
C466        N473   1.438       .  S
C467        C468   1.398       .  A
C467        H472   1.084       .  S
C468        C469   1.409       .  A
C469        N470   1.438       .  S
N470        H474   1.046       .  S
N470        H475   1.046       .  S
N473        H476   1.046       .  S
N473        H477   1.046       .  S
C478        C479   1.406       .  A
C478        C483   1.407       .  A
C478        H485   1.083       .  S
C479        C480   1.415       .  A
C480        C481   1.402       .  A
C480        N487   1.433       .  S
C481        C482   1.404       .  A
C481        H486   1.084       .  S
C482        C483   1.416       .  A
C483        N484   1.436       .  S
N484        H488   1.046       .  S
N484        H489   1.046       .  S
N487        H490   1.046       .  S
N487        H491   1.045       .  S
C492        C493   1.397       .  A
C492        C497   1.406       .  A
C492        H499   1.084       .  S
C493        C494   1.405       .  A
C494        C495   1.404       .  A
C494        N501   1.438       .  S
C495        C496   1.409       .  A
C495        H500   1.083       .  S
C496        C497   1.418       .  A
C497        N498   1.438       .  S
N498        H502   1.046       .  S
N498        H503   1.045       .  S
N501        H504   1.045       .  S
N501        H505   1.046       .  S
C506        C507   1.404       .  A
C506        C511   1.403       .  A
C506        H513   1.084       .  S
C507        C508   1.415       .  A
C508        C509   1.395       .  A
C508        N515   1.433       .  S
C509        C510   1.402       .  A
C509        H514   1.084       .  S
C510        C511   1.417       .  A
C511        N512   1.438       .  S
N512        H516   1.046       .  S
N512        H517   1.043       .  S
N515        H518   1.045       .  S
N515        H519   1.043       .  S
C520        C521   1.403       .  A
C520        C525   1.400       .  A
C520        H527   1.084       .  S
C521        C522   1.415       .  A
C522        C523   1.400       .  A
C522        N529   1.438       .  S
C523        C524   1.402       .  A
C523        H528   1.084       .  S
C524        C525   1.414       .  A
C525        N526   1.439       .  S
N526        H530   1.046       .  S
N526        H531   1.043       .  S
N529        H532   1.043       .  S
N529        H533   1.046       .  S
C534        C535   1.406       .  A
C534        C539   1.407       .  A
C534        H541   1.084       .  S
C535        C536   1.416       .  A
C536        C537   1.404       .  A
C536        N543   1.437       .  S
C537        C538   1.401       .  A
C537        H542   1.084       .  S
C538        C539   1.409       .  A
C539        N540   1.438       .  S
N540        H544   1.046       .  S
N540        H545   1.046       .  S
N543        H546   1.046       .  S
N543        H547   1.046       .  S
C548        C549   1.402       .  A
C548        C553   1.405       .  A
C548        H555   1.084       .  S
C549        C550   1.414       .  A
C550        C551   1.402       .  A
C550        N557   1.439       .  S
C551        C552   1.404       .  A
C551        H556   1.084       .  S
C552        C553   1.411       .  A
C553        N554   1.438       .  S
N554        H558   1.046       .  S
N554        H559   1.046       .  S
N557        H560   1.043       .  S
N557        H561   1.046       .  S
C562        C563   1.399       .  A
C562        C567   1.398       .  A
C562        H569   1.084       .  S
C563        C564   1.416       .  A
C564        C565   1.403       .  A
C564        N571   1.439       .  S
C565        C566   1.404       .  A
C565        H570   1.084       .  S
C566        C567   1.419       .  A
C567        N568   1.432       .  S
N568        H572   1.042       .  S
N568        H573   1.046       .  S
N571        H574   1.043       .  S
N571        H575   1.046       .  S
C576        C577   1.405       .  A
C576        C581   1.402       .  A
C576        H583   1.083       .  S
C577        C578   1.414       .  A
C578        C579   1.408       .  A
C578        N585   1.438       .  S
C579        C580   1.408       .  A
C579        H584   1.083       .  S
C580        C581   1.415       .  A
C581        N582   1.436       .  S
N582        H586   1.046       .  S
N582        H587   1.046       .  S
N585        H588   1.046       .  S
N585        H589   1.046       .  S
C590        C591   1.402       .  A
C590        C595   1.401       .  A
C590        H597   1.084       .  S
C591        C592   1.414       .  A
C592        C593   1.409       .  A
C592        N599   1.438       .  S
C593        C594   1.404       .  A
C593        H598   1.083       .  S
C594        C595   1.414       .  A
C595        N596   1.439       .  S
N596        H600   1.046       .  S
N596        H601   1.046       .  S
N599        H602   1.046       .  S
N599        H603   1.046       .  S
C604        C605   1.403       .  A
C604        C609   1.395       .  A
C604        H611   1.084       .  S
C605        C606   1.415       .  A
C606        C607   1.408       .  A
C606        N613   1.438       .  S
C607        C608   1.408       .  A
C607        H612   1.083       .  S
C608        C609   1.420       .  A
C609        N610   1.429       .  S
N610        H614   1.043       .  S
N610        H615   1.045       .  S
N613        H616   1.045       .  S
N613        H617   1.046       .  S
C618        C619   1.401       .  A
C618        C623   1.405       .  A
C618        H625   1.084       .  S
C619        C620   1.416       .  A
C620        C621   1.401       .  A
C620        N627   1.439       .  S
C621        C622   1.401       .  A
C621        H626   1.084       .  S
C622        C623   1.413       .  A
C623        N624   1.438       .  S
N624        H628   1.046       .  S
N624        H629   1.046       .  S
N627        H630   1.043       .  S
N627        H631   1.046       .  S
C632        C633   1.401       .  A
C632        C637   1.400       .  A
C632        H639   1.084       .  S
C633        C634   1.414       .  A
C634        C635   1.401       .  A
C634        N641   1.439       .  S
C635        C636   1.404       .  A
C635        H640   1.084       .  S
C636        C637   1.418       .  A
C637        N638   1.438       .  S
N638        H642   1.045       .  S
N638        H643   1.042       .  S
N641        H644   1.043       .  S
N641        H645   1.045       .  S
C646        C647   1.408       .  A
C646        C651   1.406       .  A
C646        H653   1.083       .  S
C647        C648   1.418       .  A
C648        C649   1.406       .  A
C648        N655   1.438       .  S
C649        C650   1.398       .  A
C649        H654   1.084       .  S
C650        C651   1.407       .  A
C651        N652   1.438       .  S
N652        H656   1.046       .  S
N652        H657   1.046       .  S
N655        H658   1.046       .  S
N655        H659   1.046       .  S
C660        C661   1.403       .  A
C660        C665   1.406       .  A
C660        H667   1.084       .  S
C661        C662   1.414       .  A
C662        C663   1.401       .  A
C662        N669   1.439       .  S
C663        C664   1.403       .  A
C663        H668   1.084       .  S
C664        C665   1.409       .  A
C665        N666   1.437       .  S
N666        H670   1.046       .  S
N666        H671   1.046       .  S
N669        H672   1.043       .  S
N669        H673   1.046       .  S
C674        C675   1.405       .  A
C674        C679   1.406       .  A
C674        H681   1.084       .  S
C675        C676   1.413       .  A
C676        C677   1.404       .  A
C676        N683   1.438       .  S
C677        C678   1.404       .  A
C677        H682   1.084       .  S
C678        C679   1.412       .  A
C679        N680   1.438       .  S
N680        H684   1.046       .  S
N680        H685   1.046       .  S
N683        H686   1.046       .  S
N683        H687   1.046       .  S
C688        C689   1.408       .  A
C688        C693   1.406       .  A
C688       C1334   1.494       .  S
C689        C690   1.407       .  A
C689        H694   1.083       .  S
C690        C691   1.403       .  A
C690       C1362   1.486       .  S
C691        C692   1.400       .  A
C691        H695   1.084       .  S
C692        C693   1.401       .  A
C692       C1351   1.477       .  S
C693        H696   1.083       .  S
C697        C698   1.401       .  A
C697        C702   1.399       .  A
C697       C1306   1.473       .  S
C698        C699   1.405       .  A
C698        H703   1.084       .  S
C699        C700   1.406       .  A
C699       C1365   1.485       .  S
C700        C701   1.403       .  A
C700        H704   1.084       .  S
C701        C702   1.401       .  A
C701       C1320   1.474       .  S
C702        H705   1.084       .  S
C706        C707   1.405       .  A
C706        C711   1.403       .  A
C706       C1292   1.493       .  S
C707        C708   1.402       .  A
C707        H712   1.083       .  S
C708        C709   1.404       .  A
C708       C1281   1.486       .  S
C709        C710   1.408       .  A
C709        H713   1.082       .  S
C710        C711   1.408       .  A
C710       C1264   1.493       .  S
C711        H714   1.082       .  S
C715        C716   1.400       .  A
C715        C720   1.400       .  A
C715       C1250   1.475       .  S
C716        C717   1.406       .  A
C716        H721   1.084       .  S
C717        C718   1.405       .  A
C717       C1278   1.486       .  S
C718        C719   1.405       .  A
C718        H722   1.084       .  S
C719        C720   1.404       .  A
C719       C1239   1.482       .  S
C720        H723   1.084       .  S
C724        C725   1.403       .  A
C724        C729   1.405       .  A
C724       C1225   1.481       .  S
C725        C726   1.400       .  A
C725        H730   1.084       .  S
C726        C727   1.399       .  A
C726       C1208   1.475       .  S
C727        C728   1.402       .  A
C727        H731   1.083       .  S
C728        C729   1.406       .  A
C728       C1194   1.481       .  S
C729        H732   1.084       .  S
C733        C734   1.405       .  A
C733        C738   1.407       .  A
C733       C1183   1.493       .  S
C734        C735   1.400       .  A
C734        H739   1.084       .  S
C735        C736   1.401       .  A
C735       C1197   1.478       .  S
C736        C737   1.406       .  A
C736        H740   1.082       .  S
C737        C738   1.409       .  A
C737       C1166   1.497       .  S
C738        H741   1.081       .  S
C742        C743   1.402       .  A
C742        C747   1.401       .  A
C742       C1155   1.475       .  S
C743        C744   1.404       .  A
C743        H748   1.084       .  S
C744        C745   1.404       .  A
C744       C1138   1.484       .  S
C745        C746   1.403       .  A
C745        H749   1.084       .  S
C746        C747   1.402       .  A
C746       C1124   1.482       .  S
C747        H750   1.084       .  S
C751        C752   1.401       .  A
C751        C756   1.401       .  A
C751       C1110   1.475       .  S
C752        C753   1.404       .  A
C752        H757   1.083       .  S
C753        C754   1.405       .  A
C753       C1141   1.485       .  S
C754        C755   1.405       .  A
C754        H758   1.083       .  S
C755        C756   1.405       .  A
C755       C1099   1.491       .  S
C756        H759   1.084       .  S
C760        C761   1.406       .  A
C760        C765   1.411       .  A
C760       C1054   1.498       .  S
C761        C762   1.395       .  A
C761        H766   1.082       .  S
C762        C763   1.397       .  A
C762       C1082   1.480       .  S
C763        C764   1.413       .  A
C763        H767   1.080       .  S
C764        C765   1.415       .  A
C764       C1068   1.515       .  S
C765        H768   1.077       .  S
C769        C770   1.403       .  A
C769        C774   1.398       .  A
C769       C1029   1.490       .  S
C770        C771   1.418       .  A
C770        H775   1.077       .  S
C771        C772   1.416       .  A
C771       C1071   1.526       .  S
C772        C773   1.405       .  A
C772        H776   1.073       .  S
C773        C774   1.400       .  A
C773       C1043   1.488       .  S
C774        H777   1.082       .  S
C778        C779   1.406       .  A
C778        C783   1.410       .  A
C778       C1012   1.492       .  S
C779        C780   1.399       .  A
C779        H784   1.083       .  S
C780        C781   1.397       .  A
C780        C998   1.472       .  S
C781        C782   1.403       .  A
C781        H785   1.084       .  S
C782        C783   1.407       .  A
C782        C987   1.487       .  S
C783        H786   1.083       .  S
C787        C788   1.405       .  A
C787        C792   1.403       .  A
C787        C973   1.485       .  S
C788        C789   1.406       .  A
C788        H793   1.084       .  S
C789        C790   1.406       .  A
C789        C984   1.486       .  S
C790        C791   1.402       .  A
C790        H794   1.084       .  S
C791        C792   1.401       .  A
C791        C959   1.481       .  S
C792        H795   1.084       .  S
C796        C833   1.461       .  S
C796       C1309   1.476       .  S
C796        N814   1.348       .  A
N797        N814   1.323       .  A
N797        N819   1.320       .  A
N797       Co834   2.076       .  S
C798        C836   1.455       .  S
C798        H843   1.081       .  S
C798        N823   1.338       .  A
H799        C840   1.079       .  S
C800        C804   1.459       .  S
C800        H829   1.081       .  S
C800        N824   1.342       .  A
Co801       N819   2.087       .  S
Co801       N809   2.090       .  S
Co801       N841   2.086       .  S
Co801       N817   2.088       .  S
Co801      Cl845   2.453       .  S
N802        C840   1.338       .  A
N802        N809   1.318       .  A
N802       Co803   2.077       .  S
Co803       N823   2.074       .  S
Co803      Cl845   2.448       .  S
C804       C1211   1.467       .  S
C804        N842   1.345       .  A
N805        N812   1.321       .  A
N805        N835   1.325       .  A
N805       Co838   2.090       .  S
N806        N824   1.321       .  A
N806        N842   1.322       .  A
N807        C836   1.349       .  A
N807        N817   1.325       .  A
H808        C833   1.082       .  S
N809        N830   1.325       .  A
N810        N828   1.321       .  A
N810        N815   1.323       .  A
C811        C839   1.460       .  S
C811        C956   1.470       .  S
C811        N815   1.346       .  A
N812        C827   1.341       .  A
C813        C816   1.457       .  S
C813        H847   1.081       .  S
C813        N841   1.342       .  A
C816       C1026   1.468       .  S
C816        N837   1.348       .  A
N817        N823   1.320       .  A
N818        C844   1.335       .  A
N818        N820   1.317       .  A
N819        C833   1.342       .  A
N820        N848   1.326       .  A
N820       Co838   2.091       .  S
H822        C839   1.081       .  S
N824       Co838   2.091       .  S
N825        N837   1.324       .  A
N825        N841   1.320       .  A
N825       Co834   2.082       .  S
C826        C840   1.465       .  S
C826       C1169   1.490       .  S
C826        N830   1.355       .  A
C827        C846   1.456       .  S
N828        C839   1.343       .  A
N828       Co838   2.091       .  S
C832        C844   1.461       .  S
C832       C1057   1.488       .  S
C832        N848   1.356       .  A
Co834      Cl845   2.445       .  S
N835        C846   1.349       .  A
C836       C1001   1.470       .  S
C846       C1337   1.470       .  S
C849        C886   1.458       .  S
C849       C1236   1.469       .  S
C849        N867   1.347       .  A
N850        N867   1.324       .  A
N850        N872   1.320       .  A
C851        C889   1.460       .  S
C851        N876   1.339       .  A
C853        C857   1.457       .  S
C853        H882   1.081       .  S
C853        N877   1.341   1_455  A
Co854       N872   2.089   1_655  S
Co854       N862   2.086   1_655  S
Co854       N894   2.084       .  S
Co854       N870   2.086       .  S
N855        C893   1.338       .  A
N855        N862   1.318       .  A
Co856       N859   2.080   1_655  S
Co856       N863   2.078       .  S
Co856      Cl898   2.440       .  S
C857       C1180   1.466       .  S
C857        N895   1.347       .  A
N858        N865   1.318       .  A
N858        N888   1.324   1_655  A
N858       Co891   2.088       .  S
N859        N877   1.320   1_455  A
N859        N895   1.324       .  A
N860        C889   1.351       .  A
N860        N870   1.325       .  A
H861        C886   1.081       .  S
N862        N883   1.325       .  A
N863        N881   1.320       .  A
N863        N868   1.321       .  A
C864        C892   1.465       .  S
C864       C1152   1.483       .  S
C864        N868   1.347       .  A
N865        C880   1.337   1_655  A
N865       Co887   2.078       .  S
C866        C869   1.456       .  S
C866        H900   1.081       .  S
C866        N894   1.341       .  A
C869       C1085   1.466       .  S
C869        N890   1.347       .  A
N870        N876   1.319       .  A
N871        C897   1.337       .  A
N871        N873   1.318       .  A
N871       Co887   2.073       .  S
N872        C886   1.342       .  A
N873        N901   1.325       .  A
N873       Co891   2.096       .  S
H874        C897   1.079       .  S
H875        C892   1.081       .  S
N877       Co891   2.085       .  S
N878        N890   1.324       .  A
N878        N894   1.320       .  A
C879        C893   1.464       .  S
C879       C1222   1.487       .  S
C879        N883   1.353       .  A
C880        C899   1.467       .  S
C880        H884   1.079       .  S
N881        C892   1.344       .  A
N881       Co891   2.088       .  S
C885        C897   1.463       .  S
C885       C1040   1.492       .  S
C885        N901   1.356       .  A
Co887      Cl898   2.448       .  S
N888        C899   1.353       .  A
C889       C1113   1.480       .  S
Co891      Cl898   2.457       .  S
C899       C1267   1.491       .  S
C902        C939   1.458       .  S
C902       C1348   1.469       .  S
C902        N920   1.347       .  A
N903        N920   1.324       .  A
N903        N925   1.321       .  A
C904        C942   1.456       .  S
C904        N929   1.340       .  A
C906        C910   1.466       .  S
C906        H935   1.076       .  S
C906        N930   1.336       .  A
Co907       N925   2.087       .  S
Co907       N915   2.092       .  S
Co907       N947   2.094   1_565  S
Co907       N923   2.086   1_565  S
N908        C946   1.338       .  A
N908        N915   1.319       .  A
Co909       N912   2.089       .  S
Co909       N916   2.083   1_565  S
Co909      Cl951   2.452       .  S
C910       C1295   1.493       .  S
C910        N948   1.356       .  A
N911        N918   1.319       .  A
N911        N941   1.324       .  A
N911       Co944   2.082       .  S
N912        N930   1.317       .  A
N912        N948   1.325       .  A
N913        C942   1.349       .  A
N913        N923   1.325       .  A
H914        C939   1.081       .  S
N915        N936   1.326       .  A
N916        N934   1.318       .  A
N916        N921   1.323       .  A
C917        C945   1.470       .  S
C917       C1015   1.493       .  S
C917        N921   1.353       .  A
N918        C933   1.341       .  A
N918       Co940   2.081       .  S
C919        C922   1.469       .  S
C919        H953   1.081       .  S
C919        N947   1.342       .  A
C922       C1096   1.490       .  S
C922        N943   1.348       .  A
N923        N929   1.321       .  A
N924        C950   1.340       .  A
N924        N926   1.318       .  A
N924       Co940   2.082   1_545  S
N925        C939   1.342       .  A
N926        N954   1.322       .  A
N926       Co944   2.077   1_545  S
H927        C950   1.081       .  S
H928        C945   1.079       .  S
N930       Co944   2.073       .  S
N931        N943   1.322       .  A
N931        N947   1.319       .  A
C932        C946   1.461       .  S
C932       C1253   1.483       .  S
C932        N936   1.353       .  A
C933        C952   1.460       .  S
C933        H937   1.081       .  S
N934        C945   1.341       .  A
N934       Co944   2.085   1_545  S
C938        C950   1.465       .  S
C938       C1127   1.486       .  S
C938        N954   1.350       .  A
Co940      Cl951   2.453       .  S
N941        C952   1.349       .  A
C942        C970   1.469       .  S
Co944      Cl951   2.445       .  S
C952       C1323   1.477       .  S
C955        C956   1.403       .  A
C955        C960   1.402       .  A
C955        H962   1.084       .  S
C956        C957   1.413       .  A
C957        C958   1.400       .  A
C957        N964   1.439       .  S
C958        C959   1.405       .  A
C958        H963   1.084       .  S
C959        C960   1.417       .  A
C960        N961   1.438       .  S
N961        H965   1.046       .  S
N961        H966   1.043       .  S
N964        H967   1.043       .  S
N964        H968   1.046       .  S
C969        C970   1.399       .  A
C969        C974   1.405       .  A
C969        H976   1.084       .  S
C970        C971   1.416       .  A
C971        C972   1.402       .  A
C971        N978   1.439       .  S
C972        C973   1.404       .  A
C972        H977   1.084       .  S
C973        C974   1.414       .  A
C974        N975   1.438       .  S
N975        H979   1.046       .  S
N975        H980   1.046       .  S
N978        H981   1.043       .  S
N978        H982   1.046       .  S
C983        C984   1.403       .  A
C983        C988   1.402       .  A
C983        H990   1.084       .  S
C984        C985   1.413       .  A
C985        C986   1.409       .  A
C985        N992   1.438       .  S
C986        C987   1.405       .  A
C986        H991   1.084       .  S
C987        C988   1.414       .  A
C988        N989   1.439       .  S
N989        H993   1.046       .  S
N989        H994   1.046       .  S
N992        H995   1.046       .  S
N992        H996   1.046       .  S
C997        C998   1.401       .  A
C997       C1002   1.404       .  A
C997       H1004   1.084       .  S
C998        C999   1.416       .  A
C999       C1000   1.401       .  A
C999       N1006   1.439       .  S
C1000      C1001   1.400       .  A
C1000      H1005   1.084       .  S
C1001      C1002   1.410       .  A
C1002      N1003   1.438       .  S
N1003      H1007   1.046       .  S
N1003      H1008   1.046       .  S
N1006      H1009   1.043       .  S
N1006      H1010   1.046       .  S
C1011      C1012   1.404       .  A
C1011      C1016   1.407       .  A
C1011      H1018   1.083       .  S
C1012      C1013   1.413       .  A
C1013      C1014   1.405       .  A
C1013      N1020   1.438       .  S
C1014      C1015   1.407       .  A
C1014      H1019   1.083       .  S
C1015      C1016   1.417       .  A
C1016      N1017   1.435       .  S
N1017      H1021   1.046       .  S
N1017      H1022   1.046       .  S
N1020      H1023   1.046       .  S
N1020      H1024   1.046       .  S
C1025      C1026   1.401       .  A
C1025      C1030   1.405       .  A
C1025      H1032   1.084       .  S
C1026      C1027   1.413       .  A
C1027      C1028   1.399       .  A
C1027      N1034   1.439       .  S
C1028      C1029   1.407       .  A
C1028      H1033   1.084       .  S
C1029      C1030   1.411       .  A
C1030      N1031   1.432       .  S
N1031      H1035   1.046       .  S
N1031      H1036   1.045       .  S
N1034      H1037   1.043       .  S
N1034      H1038   1.046       .  S
C1039      C1040   1.404       .  A
C1039      C1044   1.397       .  A
C1039      H1046   1.084       .  S
C1040      C1041   1.419       .  A
C1041      C1042   1.407       .  A
C1041      N1048   1.436       .  S
C1042      C1043   1.402       .  A
C1042      H1047   1.084       .  S
C1043      C1044   1.417       .  A
C1044      N1045   1.433       .  S
N1045      H1049   1.042       .  S
N1045      H1050   1.045       .  S
N1048      H1051   1.046       .  S
N1048      H1052   1.046       .  S
C1053      C1054   1.406       .  A
C1053      C1058   1.397       .  A
C1053      H1060   1.083       .  S
C1054      C1055   1.415       .  A
C1055      C1056   1.403       .  A
C1055      N1062   1.432       .  S
C1056      C1057   1.404       .  A
C1056      H1061   1.084       .  S
C1057      C1058   1.419       .  A
C1058      N1059   1.431       .  S
N1062      H1065   1.045       .  S
N1062      H1066   1.046       .  S
C1067      C1068   1.408       .  A
C1067      C1072   1.404       .  A
C1067      H1074   1.080       .  S
C1068      C1069   1.417       .  A
C1069      C1070   1.402       .  A
C1069      N1076   1.431       .  S
C1070      C1071   1.414       .  A
C1070      H1075   1.078       .  S
C1071      C1072   1.424       .  A
C1072      N1073   1.429       .  S
N1073      H1077   1.046       .  S
N1073      H1078   1.046       .  S
N1076      H1079   1.046       .  S
N1076      H1080   1.046       .  S
C1081      C1082   1.403       .  A
C1081      C1086   1.406       .  A
C1081      H1088   1.084       .  S
C1082      C1083   1.414       .  A
C1083      C1084   1.403       .  A
C1083      N1090   1.438       .  S
C1084      C1085   1.398       .  A
C1084      H1089   1.084       .  S
C1085      C1086   1.407       .  A
C1086      N1087   1.436       .  S
N1087      H1091   1.046       .  S
N1087      H1092   1.044       .  S
N1090      H1093   1.046       .  S
N1090      H1094   1.046       .  S
C1095      C1096   1.405       .  A
C1095      C1100   1.406       .  A
C1095      H1102   1.081       .  S
C1096      C1097   1.420       .  A
C1097      C1098   1.399       .  A
C1098      C1099   1.404       .  A
C1098      H1103   1.084       .  S
C1099      C1100   1.415       .  A
C1100      N1101   1.438       .  S
N1101      H1105   1.046       .  S
N1101      H1106   1.045       .  S
N1104      H1107   1.046   1_554  S
N1104      H1108   1.044       .  S
C1109      C1110   1.401       .  A
C1109      C1114   1.406       .  A
C1109      H1116   1.084       .  S
C1110      C1111   1.408       .  A
C1111      C1112   1.403       .  A
C1111      N1118   1.438       .  S
C1112      C1113   1.405       .  A
C1112      H1117   1.083       .  S
C1113      C1114   1.413       .  A
C1114      N1115   1.437       .  S
N1115      H1119   1.046       .  S
N1115      H1120   1.045       .  S
N1118      H1121   1.046       .  S
N1118      H1122   1.046       .  S
C1123      C1124   1.402       .  A
C1123      C1128   1.403       .  A
C1123      H1130   1.084       .  S
C1124      C1125   1.410       .  A
C1125      C1126   1.406       .  A
C1125      N1132   1.438       .  S
C1126      C1127   1.407       .  A
C1126      H1131   1.081       .  S
C1127      C1128   1.416       .  A
C1128      N1129   1.438       .  S
N1129      H1133   1.046       .  S
N1129      H1134   1.046       .  S
N1132      H1135   1.046       .  S
N1132      H1136   1.046       .  S
C1137      C1138   1.405       .  A
C1137      C1142   1.405       .  A
C1137      H1144   1.084       .  S
C1138      C1139   1.410       .  A
C1139      C1140   1.399       .  A
C1139      N1146   1.433       .  S
C1140      C1141   1.404       .  A
C1140      H1145   1.084       .  S
C1141      C1142   1.411       .  A
C1142      N1143   1.432       .  S
N1143      H1147   1.045       .  S
N1143      H1148   1.046       .  S
N1146      H1149   1.046       .  S
N1146      H1150   1.045       .  S
C1151      C1152   1.405       .  A
C1151      C1156   1.407       .  A
C1151      H1158   1.083       .  S
C1152      C1153   1.417       .  A
C1153      C1154   1.403       .  A
C1153      N1160   1.438       .  S
C1154      C1155   1.398       .  A
C1154      H1159   1.084       .  S
C1155      C1156   1.409       .  A
C1156      N1157   1.438       .  S
N1157      H1161   1.046       .  S
N1157      H1162   1.046       .  S
N1160      H1163   1.046       .  S
N1160      H1164   1.046       .  S
C1165      C1166   1.406       .  A
C1165      C1170   1.407       .  A
C1165      H1172   1.083       .  S
C1166      C1167   1.415       .  A
C1167      C1168   1.402       .  A
C1167      N1174   1.433       .  S
C1168      C1169   1.404       .  A
C1168      H1173   1.084       .  S
C1169      C1170   1.416       .  A
C1170      N1171   1.436       .  S
N1171      H1175   1.046       .  S
N1171      H1176   1.046       .  S
N1174      H1177   1.046       .  S
N1174      H1178   1.045       .  S
C1179      C1180   1.397       .  A
C1179      C1184   1.406       .  A
C1179      H1186   1.084       .  S
C1180      C1181   1.405       .  A
C1181      C1182   1.404       .  A
C1181      N1188   1.438       .  S
C1182      C1183   1.409       .  A
C1182      H1187   1.083       .  S
C1183      C1184   1.418       .  A
C1184      N1185   1.438       .  S
N1185      H1189   1.046       .  S
N1185      H1190   1.045       .  S
N1188      H1191   1.045       .  S
N1188      H1192   1.046       .  S
C1193      C1194   1.404       .  A
C1193      C1198   1.403       .  A
C1193      H1200   1.084       .  S
C1194      C1195   1.415       .  A
C1195      C1196   1.395       .  A
C1195      N1202   1.433       .  S
C1196      C1197   1.402       .  A
C1196      H1201   1.084       .  S
C1197      C1198   1.417       .  A
C1198      N1199   1.438       .  S
N1199      H1203   1.046       .  S
N1199      H1204   1.043       .  S
N1202      H1205   1.045       .  S
N1202      H1206   1.043       .  S
C1207      C1208   1.403       .  A
C1207      C1212   1.400       .  A
C1207      H1214   1.084       .  S
C1208      C1209   1.415       .  A
C1209      C1210   1.400       .  A
C1209      N1216   1.438       .  S
C1210      C1211   1.402       .  A
C1210      H1215   1.084       .  S
C1211      C1212   1.414       .  A
C1212      N1213   1.439       .  S
N1213      H1217   1.046       .  S
N1213      H1218   1.043       .  S
N1216      H1219   1.043       .  S
N1216      H1220   1.046       .  S
C1221      C1222   1.406       .  A
C1221      C1226   1.407       .  A
C1221      H1228   1.084       .  S
C1222      C1223   1.416       .  A
C1223      C1224   1.404       .  A
C1223      N1230   1.437       .  S
C1224      C1225   1.401       .  A
C1224      H1229   1.084       .  S
C1225      C1226   1.409       .  A
C1226      N1227   1.438       .  S
N1227      H1231   1.046       .  S
N1227      H1232   1.046       .  S
N1230      H1233   1.046       .  S
N1230      H1234   1.046       .  S
C1235      C1236   1.402       .  A
C1235      C1240   1.405       .  A
C1235      H1242   1.084       .  S
C1236      C1237   1.414       .  A
C1237      C1238   1.402       .  A
C1237      N1244   1.439       .  S
C1238      C1239   1.404       .  A
C1238      H1243   1.084       .  S
C1239      C1240   1.411       .  A
C1240      N1241   1.438       .  S
N1241      H1245   1.046       .  S
N1241      H1246   1.046       .  S
N1244      H1247   1.043       .  S
N1244      H1248   1.046       .  S
C1249      C1250   1.399       .  A
C1249      C1254   1.398       .  A
C1249      H1256   1.084       .  S
C1250      C1251   1.416       .  A
C1251      C1252   1.403       .  A
C1251      N1258   1.439       .  S
C1252      C1253   1.404       .  A
C1252      H1257   1.084       .  S
C1253      C1254   1.419       .  A
C1254      N1255   1.432       .  S
N1255      H1259   1.042       .  S
N1255      H1260   1.046       .  S
N1258      H1261   1.043       .  S
N1258      H1262   1.046       .  S
C1263      C1264   1.405       .  A
C1263      C1268   1.402       .  A
C1263      H1270   1.083       .  S
C1264      C1265   1.414       .  A
C1265      C1266   1.408       .  A
C1265      N1272   1.438       .  S
C1266      C1267   1.408       .  A
C1266      H1271   1.083       .  S
C1267      C1268   1.415       .  A
C1268      N1269   1.436       .  S
N1269      H1273   1.046       .  S
N1269      H1274   1.046       .  S
N1272      H1275   1.046       .  S
N1272      H1276   1.046       .  S
C1277      C1278   1.402       .  A
C1277      C1282   1.401       .  A
C1277      H1284   1.084       .  S
C1278      C1279   1.414       .  A
C1279      C1280   1.409       .  A
C1279      N1286   1.438       .  S
C1280      C1281   1.404       .  A
C1280      H1285   1.083       .  S
C1281      C1282   1.414       .  A
C1282      N1283   1.439       .  S
N1283      H1287   1.046       .  S
N1283      H1288   1.046       .  S
N1286      H1289   1.046       .  S
N1286      H1290   1.046       .  S
C1291      C1292   1.403       .  A
C1291      C1296   1.395       .  A
C1291      H1298   1.084       .  S
C1292      C1293   1.415       .  A
C1293      C1294   1.408       .  A
C1293      N1300   1.438       .  S
C1294      C1295   1.408       .  A
C1294      H1299   1.083       .  S
C1295      C1296   1.420       .  A
C1296      N1297   1.429       .  S
N1297      H1301   1.043       .  S
N1297      H1302   1.045       .  S
N1300      H1303   1.045       .  S
N1300      H1304   1.046       .  S
C1305      C1306   1.401       .  A
C1305      C1310   1.405       .  A
C1305      H1312   1.084       .  S
C1306      C1307   1.416       .  A
C1307      C1308   1.401       .  A
C1307      N1314   1.439       .  S
C1308      C1309   1.401       .  A
C1308      H1313   1.084       .  S
C1309      C1310   1.413       .  A
C1310      N1311   1.438       .  S
N1311      H1315   1.046       .  S
N1311      H1316   1.046       .  S
N1314      H1317   1.043       .  S
N1314      H1318   1.046       .  S
C1319      C1320   1.401       .  A
C1319      C1324   1.400       .  A
C1319      H1326   1.084       .  S
C1320      C1321   1.414       .  A
C1321      C1322   1.401       .  A
C1321      N1328   1.439       .  S
C1322      C1323   1.404       .  A
C1322      H1327   1.084       .  S
C1323      C1324   1.418       .  A
C1324      N1325   1.438       .  S
N1325      H1329   1.045       .  S
N1325      H1330   1.042       .  S
N1328      H1331   1.043       .  S
N1328      H1332   1.045       .  S
C1333      C1334   1.408       .  A
C1333      C1338   1.406       .  A
C1333      H1340   1.083       .  S
C1334      C1335   1.418       .  A
C1335      C1336   1.406       .  A
C1335      N1342   1.438       .  S
C1336      C1337   1.398       .  A
C1336      H1341   1.084       .  S
C1337      C1338   1.407       .  A
C1338      N1339   1.438       .  S
N1339      H1343   1.046       .  S
N1339      H1344   1.046       .  S
N1342      H1345   1.046       .  S
N1342      H1346   1.046       .  S
C1347      C1348   1.403       .  A
C1347      C1352   1.406       .  A
C1347      H1354   1.084       .  S
C1348      C1349   1.414       .  A
C1349      C1350   1.401       .  A
C1349      N1356   1.439       .  S
C1350      C1351   1.403       .  A
C1350      H1355   1.084       .  S
C1351      C1352   1.409       .  A
C1352      N1353   1.437       .  S
N1353      H1357   1.046       .  S
N1353      H1358   1.046       .  S
N1356      H1359   1.043       .  S
N1356      H1360   1.046       .  S
C1361      C1362   1.405       .  A
C1361      C1366   1.406       .  A
C1361      H1368   1.084       .  S
C1362      C1363   1.413       .  A
C1363      C1364   1.404       .  A
C1363      N1370   1.438       .  S
C1364      C1365   1.404       .  A
C1364      H1369   1.084       .  S
C1365      C1366   1.412       .  A
C1366      N1367   1.438       .  S
N1367      H1371   1.046       .  S
N1367      H1372   1.046       .  S
N1370      H1373   1.046       .  S
N1370      H1374   1.046       .  S
