geometry optimzed in LAMMPS
_audit_creation_date              2020-12-01 
_audit_creation_method            'lammps2cif' 
_symmetry_space_group_name_H-M    'P1' 
_symmetry_Int_Tables_number       1 
_symmetry_cell_setting            triclinic 
loop_ 
_symmetry_equiv_pos_as_xyz 
  x,y,z 
_cell_length_a                    64.25407916 
_cell_length_b                    64.49865365399008 
_cell_length_c                    65.17704472979489 
_cell_angle_alpha                 90.02545268493768 
_cell_angle_beta                  89.90718507987515 
_cell_angle_gamma                 89.87691264152487 
loop_ 
_atom_site_label 
_atom_site_type_symbol 
_atom_site_fract_x 
_atom_site_fract_y 
_atom_site_fract_z 
_atom_site_charge 
C1          C  0.37451868  0.62681250  0.62748729    -0.01400
N2          N  0.48671356  0.45813655  0.50720821    -0.05100
N3          N  0.48182996  0.44353486  0.52054671    -0.57200
N4          N  0.47393504  0.47212878  0.45943452    -0.04700
N5          N  0.46001429  0.46731844  0.44533908    -0.59300
N6          N  0.48847049  0.45779384  0.46039212    -0.04300
N7          N  0.48469855  0.44289308  0.44706411    -0.57100
N8          N  0.47188440  0.47219892  0.50629440    -0.04000
N9          N  0.45658373  0.46738521  0.51893735    -0.59700
C10         C  0.46303595  0.44954578  0.52782970     0.97100
C11         C  0.46704679  0.44912529  0.43761616     0.96900
N12         N  0.48743104  0.53582910  0.45999114    -0.05200
N13         N  0.48374971  0.54984862  0.44566450    -0.57700
N14         N  0.47119206  0.52103146  0.50613255    -0.03400
N15         N  0.45637710  0.52440946  0.51972851    -0.59000
N16         N  0.48543320  0.53560433  0.50713972    -0.05300
N17         N  0.48061524  0.54919719  0.52158629    -0.58000
N18         N  0.47339162  0.52104301  0.45922194    -0.03000
N19         N  0.45995282  0.52464140  0.44434268    -0.59100
Mn20       Mn  0.47212767  0.49664418  0.48271226     1.18400
C21         C  0.46665073  0.54258541  0.43589352     0.99200
C22         C  0.46245007  0.54193874  0.52932263     0.99900
N23         N  0.53729444  0.45865803  0.46188882    -0.05300
N24         N  0.54164727  0.44449529  0.44792243    -0.61600
N25         N  0.55049019  0.47249777  0.50950423    -0.04100
N26         N  0.56468093  0.46750746  0.52336004    -0.62300
N27         N  0.53592287  0.45820576  0.50882366    -0.04800
N28         N  0.53988929  0.44331632  0.52213223    -0.61900
N29         N  0.55200751  0.47280897  0.46256590    -0.03700
N30         N  0.56686738  0.46834613  0.44924419    -0.62500
Mn31       Mn  0.51212958  0.45780639  0.48463016     1.10700
C32         C  0.55995270  0.45088629  0.43999657     1.00400
C33         C  0.55776743  0.44931645  0.53126472     1.00500
N34         N  0.53461765  0.53610407  0.50899067    -0.04800
N35         N  0.53767815  0.55030611  0.52322067    -0.60200
N36         N  0.55137943  0.52218192  0.46243845    -0.04100
N37         N  0.56559714  0.52648176  0.44834579    -0.56900
N38         N  0.53651785  0.53625634  0.46214041    -0.05400
N39         N  0.54030767  0.55032242  0.44797620    -0.59700
N40         N  0.54937439  0.52193040  0.50966453    -0.04400
N41         N  0.56271776  0.52622700  0.52446288    -0.56900
Mn42       Mn  0.51102708  0.53652228  0.48460191     1.20200
Mn43       Mn  0.55148109  0.49741423  0.48608978     1.10100
Cl44       Cl  0.51172235  0.49710752  0.48453633    -0.84900
C45         C  0.55515909  0.54392620  0.53287516     0.97400
C46         C  0.55841097  0.54408197  0.43938186     0.97200
C47         C  0.64500221  0.35165428  0.61994694    -0.01400
C48         C  0.38001216  0.35696712  0.34461880    -0.01400
C49         C  0.64971324  0.62947507  0.34499673    -0.01400
C50         C  0.37101823  0.62355926  0.34169551    -0.01400
C51         C  0.64800169  0.35660379  0.34973329    -0.01400
C52         C  0.37652751  0.35775590  0.62166808    -0.01400
C53         C  0.65094286  0.62988328  0.62162070    -0.01400
N54         N  0.24271442  0.25240666  0.98154902    -0.35500
N55         N  0.26669709  0.23141861  0.95003754    -0.56100
N56         N  0.28808722  0.20747743  0.98217926    -0.35500
N57         N  0.26629423  0.23067535  0.01371566    -0.56100
C58         C  0.23813458  0.26417716  0.96494255     0.28000
C59         C  0.23784979  0.26371695  0.99837844     0.28000
C60         C  0.29976273  0.20279966  0.96547315     0.28000
C61         C  0.29948101  0.20257471  0.99901881     0.28000
C62         C  0.25282927  0.24131838  0.93782873     0.36700
C63         C  0.27663030  0.21733955  0.93813756     0.36700
C64         C  0.25142513  0.23984401  0.02528613     0.36700
C65         C  0.27541661  0.21615808  0.02570567     0.36700
C66         C  0.23025782  0.28315424  0.97133520    -0.20800
C67         C  0.23003520  0.28284561  0.99241920    -0.20800
C68         C  0.31868604  0.19460748  0.97185484    -0.20800
C69         C  0.31862284  0.19479520  0.99290570    -0.20800
C70         C  0.25411174  0.23366953  0.91801261    -0.21900
C71         C  0.26926400  0.21859263  0.91816469    -0.21900
C72         C  0.25117633  0.23126391  0.04476812    -0.21900
C73         C  0.26629489  0.21616246  0.04500332    -0.21900
C74         C  0.23985889  0.25791375  0.94416993    -0.17200
C75         C  0.23909952  0.25681889  0.01893615    -0.17200
C76         C  0.29269116  0.20386062  0.01973238    -0.17200
C77         C  0.29330383  0.20451113  0.94469781    -0.17200
H78         H  0.22511338  0.29589634  0.96179068     0.15700
H79         H  0.22462807  0.29527566  0.00224966     0.15700
H80         H  0.33135434  0.18888395  0.96251271     0.15700
H81         H  0.33122927  0.18951263  0.00258489     0.15700
H82         H  0.24526280  0.23859278  0.90476192     0.14000
H83         H  0.27443312  0.20981087  0.90495511     0.14000
H84         H  0.24122079  0.23552691  0.05750835     0.14000
H85         H  0.27016827  0.20641055  0.05795491     0.14000
H86         H  0.24760657  0.23705566  0.98146850     0.27200
H87         H  0.27272283  0.21247276  0.98200608     0.27200
N88         N  0.28992973  0.98818604  0.21961643    -0.35500
N89         N  0.26626875  0.95645632  0.24140568    -0.56100
N90         N  0.24130666  0.98942354  0.26104056    -0.35500
N91         N  0.26543959  0.02111150  0.23983746    -0.56100
C92         C  0.29766308  0.97103369  0.21020101     0.28000
C93         C  0.29729464  0.00496954  0.20943154     0.28000
C94         C  0.23478947  0.97274087  0.27191402     0.28000
C95         C  0.23421325  0.00662568  0.27084902     0.28000
C96         C  0.27821588  0.94364286  0.22984602     0.36700
C97         C  0.25338461  0.94434870  0.25261451     0.36700
C98         C  0.27739261  0.03322951  0.22771892     0.36700
C99         C  0.25238216  0.03388897  0.25015378     0.36700
C100        C  0.31037832  0.97711019  0.19407063    -0.20800
C101        C  0.31027810  0.99837227  0.19369045    -0.20800
C102        C  0.22319230  0.97947545  0.28863740    -0.20800
C103        C  0.22279351  0.00074123  0.28793506    -0.20800
C104        C  0.27298699  0.92321009  0.23391599    -0.21900
C105        C  0.25717484  0.92365930  0.24811029    -0.21900
C106        C  0.27192401  0.05387465  0.23042867    -0.21900
C107        C  0.25606248  0.05427984  0.24453684    -0.21900
C108        C  0.29343384  0.94998396  0.21529082    -0.17200
C109        C  0.29271554  0.02612943  0.21367911    -0.17200
C110        C  0.23749076  0.02756536  0.26492665    -0.17200
C111        C  0.23855505  0.95152051  0.26720052    -0.17200
H112        H  0.31871128  0.96729070  0.18337496     0.15700
H113        H  0.31866676  0.00782387  0.18276065     0.15700
H114        H  0.21587657  0.97005712  0.30033113     0.15700
H115        H  0.21513638  0.01073623  0.29896549     0.15700
H116        H  0.27969153  0.90935347  0.22725005     0.14000
H117        H  0.24943563  0.91019994  0.25439798     0.14000
H118        H  0.27844857  0.06728037  0.22280658     0.14000
H119        H  0.24816573  0.06805915  0.24999147     0.14000
H120        H  0.28052480  0.98851698  0.23238032     0.27200
H121        H  0.24935618  0.98900295  0.24735156     0.27200
N122        N  0.01555207  0.21721212  0.25379947    -0.35500
N123        N  0.04654578  0.24270566  0.23184755    -0.56100
N124        N  0.01308007  0.26171540  0.20860215    -0.35500
N125        N  0.98197010  0.23860143  0.23277710    -0.56100
C126        C  0.03284679  0.21365844  0.26511756     0.28000
C127        C  0.99895385  0.21075277  0.26497951     0.28000
C128        C  0.02940234  0.27298950  0.20162288     0.28000
C129        C  0.99544260  0.27154084  0.20277015     0.28000
C130        C  0.05954057  0.22996430  0.24218016     0.36700
C131        C  0.05820480  0.25250360  0.21753425     0.36700
C132        C  0.97054860  0.22396172  0.24249036     0.36700
C133        C  0.96919402  0.24789522  0.21910160     0.36700
C134        C  0.02714318  0.20467454  0.28364456    -0.20800
C135        C  0.00582845  0.20276705  0.28351154    -0.20800
C136        C  0.02197532  0.29003762  0.19090142    -0.20800
C137        C  0.00062649  0.28921270  0.19175575    -0.20800
C138        C  0.07961374  0.23188030  0.23458411    -0.21900
C139        C  0.07879054  0.24621976  0.21906641    -0.21900
C140        C  0.95035091  0.22408604  0.23506851    -0.21900
C141        C  0.94947319  0.23928684  0.22031359    -0.21900
C142        C  0.05375241  0.21718335  0.25887228    -0.17200
C143        C  0.97780320  0.21129762  0.25874651    -0.17200
C144        C  0.97477778  0.26453294  0.20602677    -0.17200
C145        C  0.05077276  0.26782946  0.20381326    -0.17200
H146        H  0.03730698  0.19989532  0.29600495     0.15700
H147        H  0.99645598  0.19630469  0.29574048     0.15700
H148        H  0.03091388  0.30182895  0.18307443     0.15700
H149        H  0.99012048  0.30026609  0.18475129     0.15700
H150        H  0.09346339  0.22383989  0.23969265     0.14000
H151        H  0.09191967  0.25145838  0.21005538     0.14000
H152        H  0.93754457  0.21434341  0.23986778     0.14000
H153        H  0.93586242  0.24351183  0.21147729     0.14000
H154        H  0.01524388  0.22264134  0.23885054     0.27200
H155        H  0.01385446  0.24756150  0.21597831     0.27200
N156        N  0.51600349  0.25887224  0.26161251    -0.35500
N157        N  0.48388360  0.23659598  0.23895619    -0.56100
N158        N  0.51599768  0.20974128  0.22147251    -0.35500
N159        N  0.54833142  0.23430406  0.24148292    -0.56100
C160        C  0.49918640  0.27087881  0.26559812     0.28000
C161        C  0.53309743  0.27001905  0.26652716     0.28000
C162        C  0.49930444  0.20443707  0.20995231     0.28000
C163        C  0.53320176  0.20312657  0.21138194     0.28000
C164        C  0.47160539  0.24755491  0.25186789     0.36700
C165        C  0.47161566  0.22202588  0.23032290     0.36700
C166        C  0.56040184  0.24514061  0.25461617     0.36700
C167        C  0.56041914  0.21907541  0.23361523     0.36700
C168        C  0.50565763  0.28982697  0.27334106    -0.20800
C169        C  0.52703540  0.28927992  0.27395430    -0.20800
C170        C  0.50596382  0.19414630  0.19245031    -0.20800
C171        C  0.52731629  0.19335708  0.19331960    -0.20800
C172        C  0.45141612  0.24004245  0.25127557    -0.21900
C173        C  0.45141867  0.22387371  0.23758278    -0.21900
C174        C  0.58035720  0.23694967  0.25489445    -0.21900
C175        C  0.58034243  0.22035627  0.24166443    -0.21900
C176        C  0.47812281  0.26487616  0.26344456    -0.17200
C177        C  0.55396419  0.26298028  0.26552550    -0.17200
C178        C  0.55404513  0.20489198  0.21830612    -0.17200
C179        C  0.47816063  0.20778325  0.21518129    -0.17200
H180        H  0.49597301  0.30269170  0.27816778     0.15700
H181        H  0.53696715  0.30164700  0.27938534     0.15700
H182        H  0.49642429  0.18786219  0.18027965     0.15700
H183        H  0.53736204  0.18639073  0.18187872     0.15700
H184        H  0.43805605  0.24566257  0.25976329     0.14000
H185        H  0.43807619  0.21456824  0.23342552     0.14000
H186        H  0.59356985  0.24242662  0.26362093     0.14000
H187        H  0.59355931  0.21052608  0.23819865     0.14000
H188        H  0.51575837  0.24351068  0.25693457     0.27200
H189        H  0.51561566  0.21645215  0.23594453     0.27200
N190        N  0.23944181  0.22589356  0.48247216    -0.35500
N191        N  0.26162752  0.24945083  0.45088321    -0.56100
N192        N  0.28394245  0.27179984  0.48304269    -0.35500
N193        N  0.25968554  0.25042642  0.51458855    -0.56100
C194        C  0.22889995  0.21996930  0.46548680     0.28000
C195        C  0.22775096  0.22062609  0.49897039     0.28000
C196        C  0.29045655  0.28248181  0.46633595     0.28000
C197        C  0.28969549  0.28267464  0.49987255     0.28000
C198        C  0.25206948  0.23542877  0.43869512     0.36700
C199        C  0.27552121  0.25961963  0.43896954     0.36700
C200        C  0.24947354  0.23664861  0.52654120     0.36700
C201        C  0.27320829  0.26052535  0.52692250     0.36700
C202        C  0.21041223  0.21055944  0.47128741    -0.20800
C203        C  0.20971413  0.21091913  0.49236762    -0.20800
C204        C  0.30074037  0.30025445  0.47271115    -0.20800
C205        C  0.30014786  0.30043162  0.49377720    -0.20800
C206        C  0.25975555  0.23685326  0.41886643    -0.21900
C207        C  0.27449279  0.25223739  0.41900777    -0.21900
C208        C  0.25628092  0.23825538  0.54664990    -0.21900
C209        C  0.27138296  0.25327972  0.54687048    -0.21900
C210        C  0.23572689  0.22211532  0.44489438    -0.17200
C211        C  0.23330403  0.22342506  0.51983343    -0.17200
C212        C  0.28672197  0.27665628  0.52062209    -0.17200
C213        C  0.28840081  0.27616010  0.44555319    -0.17200
H214        H  0.19860832  0.20407063  0.46136167     0.15700
H215        H  0.19730411  0.20466571  0.50172805     0.15700
H216        H  0.30816033  0.31187959  0.46326602     0.15700
H217        H  0.30685733  0.31226502  0.50349534     0.15700
H218        H  0.25508361  0.22790547  0.40560548     0.14000
H219        H  0.28331424  0.25745273  0.40583895     0.14000
H220        H  0.25090219  0.22956502  0.55982465     0.14000
H221        H  0.27996491  0.25832279  0.56023775     0.14000
H222        H  0.25423718  0.23216092  0.48281563     0.27200
H223        H  0.27700228  0.25738511  0.48301132     0.27200
N224        N  0.29493717  0.48583403  0.24146643    -0.35500
N225        N  0.27369788  0.45304528  0.21873724    -0.56100
N226        N  0.25186810  0.48449213  0.19497740    -0.35500
N227        N  0.27051226  0.51709902  0.22010357    -0.56100
C228        C  0.30050435  0.46890084  0.25240501     0.28000
C229        C  0.29843928  0.50264421  0.25341254     0.28000
C230        C  0.24113041  0.46722288  0.18981642     0.28000
C231        C  0.23974797  0.50099459  0.19027878     0.28000
C232        C  0.28850495  0.44158620  0.22811970     0.36700
C233        C  0.26536539  0.44084999  0.20403339     0.36700
C234        C  0.28404216  0.52952975  0.23006778     0.36700
C235        C  0.26170688  0.52880499  0.20528973     0.36700
C236        C  0.30779423  0.47502623  0.27149590    -0.20800
C237        C  0.30644820  0.49630714  0.27214664    -0.20800
C238        C  0.22203130  0.47283141  0.18161780    -0.20800
C239        C  0.22114027  0.49413544  0.18194288    -0.20800
C240        C  0.28948232  0.42197920  0.21944454    -0.21900
C241        C  0.27477490  0.42150663  0.20417767    -0.21900
C242        C  0.28376794  0.54924582  0.22164068    -0.21900
C243        C  0.26962832  0.54877386  0.20587077    -0.21900
C244        C  0.30020177  0.44816548  0.24524559    -0.17200
C245        C  0.29571416  0.52358288  0.24741496    -0.17200
C246        C  0.24546428  0.52207793  0.19235397    -0.17200
C247        C  0.24851605  0.44658851  0.19136493    -0.17200
H248        H  0.31357991  0.46519084  0.28368083     0.15700
H249        H  0.31102271  0.50601132  0.28491296     0.15700
H250        H  0.20998819  0.46262910  0.17594252     0.15700
H251        H  0.20826104  0.50350568  0.17657516     0.15700
H252        H  0.29961263  0.40929240  0.22377335     0.14000
H253        H  0.27132061  0.40840375  0.19438806     0.14000
H254        H  0.29276004  0.56257349  0.22640244     0.14000
H255        H  0.26550709  0.56169224  0.19608389     0.14000
H256        H  0.29021244  0.48594637  0.22625607     0.27200
H257        H  0.26709446  0.48505692  0.20025807     0.27200
N258        N  0.23638775  0.71883607  0.98128620    -0.35500
N259        N  0.25764514  0.74259462  0.94926472    -0.56100
N260        N  0.28251732  0.76289809  0.98118971    -0.35500
N261        N  0.25890012  0.74131527  0.01320187    -0.56100
C262        C  0.22461491  0.71416645  0.96473395     0.28000
C263        C  0.22537654  0.71339683  0.99815002     0.28000
C264        C  0.28956527  0.77311861  0.96441171     0.28000
C265        C  0.28978890  0.77286784  0.99802460     0.28000
C266        C  0.24712741  0.72909881  0.93723702     0.36700
C267        C  0.27171933  0.75218971  0.93709069     0.36700
C268        C  0.24914198  0.72717993  0.02512185     0.36700
C269        C  0.27320792  0.75074627  0.02517745     0.36700
C270        C  0.20593945  0.70556437  0.97115047    -0.20800
C271        C  0.20638590  0.70514634  0.99221136    -0.20800
C272        C  0.30174777  0.78968178  0.97069407    -0.20800
C273        C  0.30191475  0.78950561  0.99180624    -0.20800
C274        C  0.25430143  0.73035040  0.91722539    -0.21900
C275        C  0.26983536  0.74499993  0.91711600    -0.21900
C276        C  0.25720336  0.72772156  0.04482305    -0.21900
C277        C  0.27223268  0.74280783  0.04492916    -0.21900
C278        C  0.23073499  0.71610978  0.94396211    -0.17200
C279        C  0.23241095  0.71448691  0.01871444    -0.17200
C280        C  0.28665307  0.76692624  0.01882447    -0.17200
C281        C  0.28601700  0.76761399  0.94356565    -0.17200
H282        H  0.19333703  0.70000829  0.96163068     0.15700
H283        H  0.19415695  0.69925155  0.00203315     0.15700
H284        H  0.30983830  0.80072568  0.96107746     0.15700
H285        H  0.31026092  0.80032257  0.00143984     0.15700
H286        H  0.24891196  0.72162904  0.90408272     0.14000
H287        H  0.27882167  0.74970402  0.90385852     0.14000
H288        H  0.25266207  0.71836345  0.05784874     0.14000
H289        H  0.28144556  0.74729103  0.05807573     0.14000
H290        H  0.25163959  0.72401287  0.98103499     0.27200
H291        H  0.27391362  0.74940669  0.98111772     0.27200
N292        N  0.78443607  0.25529767  0.98620653    -0.35500
N293        N  0.76093670  0.23505623  0.95406789    -0.56100
N294        N  0.73709327  0.21257131  0.98543927    -0.35500
N295        N  0.75830843  0.23492851  0.01752407    -0.56100
C296        C  0.78972422  0.26683685  0.96959433     0.28000
C297        C  0.78838011  0.26684947  0.00307248     0.28000
C298        C  0.72593517  0.20915384  0.96816072     0.28000
C299        C  0.72438501  0.20893183  0.00168728     0.28000
C300        C  0.77710421  0.24262386  0.94311842     0.36700
C301        C  0.75265423  0.21962005  0.94274269     0.36700
C302        C  0.77285820  0.24373539  0.02967692     0.36700
C303        C  0.74797174  0.22099399  0.02926794     0.36700
C304        C  0.79714115  0.28592401  0.97600312    -0.20800
C305        C  0.79634143  0.28591940  0.99711478    -0.20800
C306        C  0.70580304  0.20361559  0.97346751    -0.20800
C307        C  0.70491814  0.20310356  0.99454554    -0.20800
C308        C  0.77916115  0.23200732  0.92477134    -0.21900
C309        C  0.76381942  0.21720715  0.92464326    -0.21900
C310        C  0.77168152  0.23545698  0.04927347    -0.21900
C311        C  0.75579098  0.22123473  0.04907568    -0.21900
C312        C  0.78884324  0.26009984  0.94891184    -0.17200
C313        C  0.78606888  0.26023645  0.02370925    -0.17200
C314        C  0.73054917  0.20934967  0.02260905    -0.17200
C315        C  0.73405342  0.20912525  0.94787826    -0.17200
H316        H  0.80260225  0.29854452  0.96649035     0.15700
H317        H  0.80107819  0.29856123  0.00697258     0.15700
H318        H  0.69312870  0.19984422  0.96321930     0.15700
H319        H  0.69139352  0.19869833  0.00336357     0.15700
H320        H  0.79049624  0.23469285  0.91276495     0.14000
H321        H  0.76103137  0.20617104  0.91245293     0.14000
H322        H  0.78102688  0.23950050  0.06247359     0.14000
H323        H  0.75045187  0.21239569  0.06215497     0.14000
H324        H  0.77953924  0.23994390  0.98616254     0.27200
H325        H  0.75296635  0.21562523  0.98604022     0.27200
N326        N  0.01152103  0.26369282  0.75984255    -0.35500
N327        N  0.04412579  0.24411779  0.73502080    -0.56100
N328        N  0.01208282  0.22306467  0.71142595    -0.35500
N329        N  0.97979536  0.24022436  0.73838098    -0.56100
C330        C  0.02872783  0.26873300  0.77067554     0.28000
C331        C  0.99483589  0.26726393  0.77208530     0.28000
C332        C  0.02944149  0.21330752  0.70458944     0.28000
C333        C  0.99570085  0.21079710  0.70677440     0.28000
C334        C  0.05575724  0.25823514  0.74513968     0.36700
C335        C  0.05598494  0.23694983  0.71937888     0.36700
C336        C  0.96719335  0.25272748  0.74951495     0.36700
C337        C  0.96755577  0.23058847  0.72452020     0.36700
C338        C  0.02290454  0.27549915  0.79005293    -0.20800
C339        C  0.00160050  0.27492976  0.79082564    -0.20800
C340        C  0.02399845  0.19472258  0.69536741    -0.20800
C341        C  0.00272397  0.19312888  0.69676410    -0.20800
C342        C  0.07515755  0.25994324  0.73592934    -0.21900
C343        C  0.07532626  0.24637800  0.71966102    -0.21900
C344        C  0.94677306  0.25064871  0.74296859    -0.21900
C345        C  0.94702946  0.23672608  0.72705451    -0.21900
C346        C  0.04945200  0.26877326  0.76318612    -0.17200
C347        C  0.97369932  0.26500904  0.76630231    -0.17200
C348        C  0.97447825  0.21551505  0.71032475    -0.17200
C349        C  0.04998524  0.22107808  0.70566470    -0.17200
H350        H  0.03292887  0.28068642  0.80234558     0.15700
H351        H  0.99238509  0.27984239  0.80382226     0.15700
H352        H  0.03428974  0.18345203  0.68835030     0.15700
H353        H  0.99346039  0.18039718  0.69101362     0.15700
H354        H  0.08791675  0.26984062  0.74049060     0.14000
H355        H  0.08822538  0.24369555  0.70928755     0.14000
H356        H  0.93303492  0.25812223  0.74914296     0.14000
H357        H  0.93358607  0.23155441  0.71849597     0.14000
H358        H  0.01112579  0.25942758  0.74451743     0.27200
H359        H  0.01133450  0.23779203  0.71778896     0.27200
N360        N  0.73687188  0.48837905  0.25451843    -0.35500
N361        N  0.75912365  0.45660491  0.23130157    -0.56100
N362        N  0.78116984  0.48917713  0.20937954    -0.35500
N363        N  0.76153532  0.52073241  0.23516421    -0.56100
C364        C  0.73136726  0.47092946  0.26466069     0.28000
C365        C  0.73325612  0.50457839  0.26726129     0.28000
C366        C  0.79258612  0.47226727  0.20429227     0.28000
C367        C  0.79299723  0.50605051  0.20546870     0.28000
C368        C  0.74358764  0.44498714  0.23920311     0.36700
C369        C  0.76758848  0.44540668  0.21587171     0.36700
C370        C  0.74747081  0.53258615  0.24521134     0.36700
C371        C  0.77022109  0.53301935  0.22073912     0.36700
C372        C  0.72414316  0.47606256  0.28406725    -0.20800
C373        C  0.72542303  0.49728743  0.28574583    -0.20800
C374        C  0.81198836  0.47855377  0.19726445    -0.20800
C375        C  0.81212834  0.49988812  0.19775538    -0.20800
C376        C  0.74224135  0.42625252  0.22890847    -0.21900
C377        C  0.75733576  0.42658665  0.21398121    -0.21900
C378        C  0.74737396  0.55251815  0.23723211    -0.21900
C379        C  0.76189122  0.55281260  0.22177139    -0.21900
C380        C  0.73145289  0.45066172  0.25635899    -0.17200
C381        C  0.73545242  0.52581333  0.26209050    -0.17200
C382        C  0.78640182  0.52685171  0.20745944    -0.17200
C383        C  0.78534778  0.45149156  0.20451315    -0.17200
H384        H  0.71840796  0.46560505  0.29575605     0.15700
H385        H  0.72086031  0.50634033  0.29900111     0.15700
H386        H  0.82468294  0.46881961  0.19207125     0.15700
H387        H  0.82485750  0.50975225  0.19299456     0.15700
H388        H  0.73151667  0.41367599  0.23184233     0.14000
H389        H  0.76045277  0.41430165  0.20308420     0.14000
H390        H  0.73785012  0.56551033  0.24201071     0.14000
H391        H  0.76588471  0.56607538  0.21240069     0.14000
H392        H  0.74143696  0.48924740  0.23925348     0.27200
H393        H  0.76564642  0.48933679  0.21386925     0.27200
N394        N  0.29549532  0.49101118  0.72588353    -0.35500
N395        N  0.27002975  0.52185656  0.74609272    -0.56100
N396        N  0.24820750  0.48889752  0.76762700    -0.35500
N397        N  0.27168104  0.45807191  0.74533408    -0.56100
C398        C  0.29964646  0.50844624  0.71514586     0.28000
C399        C  0.29933532  0.47473052  0.71334546     0.28000
C400        C  0.23513901  0.50516619  0.76997990     0.28000
C401        C  0.23699827  0.47150270  0.77080214     0.28000
C402        C  0.28626467  0.53366140  0.74022051     0.36700
C403        C  0.25994470  0.53266623  0.76075385     0.36700
C404        C  0.28734323  0.44711794  0.73672631     0.36700
C405        C  0.26369495  0.44611455  0.76039720     0.36700
C406        C  0.30597562  0.50320920  0.69545598    -0.20800
C407        C  0.30601857  0.48190030  0.69439495    -0.20800
C408        C  0.21531227  0.49808545  0.77453392    -0.20800
C409        C  0.21645933  0.47676243  0.77495761    -0.20800
C410        C  0.28663846  0.55195525  0.75142817    -0.21900
C411        C  0.26967335  0.55145730  0.76425800    -0.21900
C412        C  0.28925929  0.42799039  0.74615891    -0.21900
C413        C  0.27459943  0.42754677  0.76152453    -0.21900
C414        C  0.29914999  0.52875441  0.72336737    -0.17200
C415        C  0.29851060  0.45370442  0.71932232    -0.17200
C416        C  0.24544906  0.45124869  0.77151338    -0.17200
C417        C  0.24129096  0.52613484  0.76987737    -0.17200
H418        H  0.31040712  0.51362902  0.68320435     0.15700
H419        H  0.31069709  0.47280316  0.68122173     0.15700
H420        H  0.20156630  0.50733179  0.77756056     0.15700
H421        H  0.20371386  0.46633967  0.77827461     0.15700
H422        H  0.29772277  0.56450441  0.75025655     0.14000
H423        H  0.26505154  0.56346369  0.77495264     0.14000
H424        H  0.30006882  0.41566731  0.74242680     0.14000
H425        H  0.27210876  0.41480776  0.77202294     0.14000
H426        H  0.29169832  0.49027577  0.74140324     0.27200
H427        H  0.26426343  0.48965225  0.76558633     0.27200
C428        C  0.86994657  0.62521443  0.85004345    -0.01400
N429        N  0.98554897  0.52553533  0.96014647    -0.05100
N430        N  0.98184427  0.53998110  0.94624437    -0.57200
N431        N  0.97062078  0.51054280  0.00696873    -0.04700
N432        N  0.95612293  0.51557289  0.02057028    -0.59300
N433        N  0.98556105  0.52446895  0.00704352    -0.04300
N434        N  0.98152067  0.53919608  0.02051339    -0.57100
N435        N  0.97086042  0.51137983  0.95976927    -0.04000
N436        N  0.95696737  0.51580469  0.94553265    -0.59700
C437        C  0.96404390  0.53361485  0.93709992     0.97100
C438        C  0.96321828  0.53346139  0.02898501     0.96900
N439        N  0.98408025  0.44635515  0.00477248    -0.05200
N440        N  0.97965823  0.43175344  0.01825411    -0.57700
N441        N  0.96995061  0.46261096  0.95831235    -0.03400
N442        N  0.95590626  0.45950362  0.94386750    -0.59000
N443        N  0.98419889  0.44794249  0.95776232    -0.05300
N444        N  0.98012420  0.43460059  0.94295283    -0.58000
N445        N  0.96986429  0.46107374  0.00528025    -0.03000
N446        N  0.95543221  0.45668744  0.01902343    -0.59100
Mn447      Mn  0.96974924  0.48638288  0.98267228     1.18400
C448        C  0.96179802  0.43842482  0.02709245     0.99200
C449        C  0.96250244  0.44204110  0.93428876     0.99900
N450        N  0.03486071  0.52287413  0.00707007    -0.05300
N451        N  0.03961732  0.53675617  0.02118383    -0.61600
N452        N  0.04889568  0.50962149  0.95954889    -0.04100
N453        N  0.06315438  0.51421887  0.94562084    -0.62300
N454        N  0.03458416  0.52421990  0.96023476    -0.04800
N455        N  0.03880075  0.53899562  0.94693530    -0.61900
N456        N  0.04899015  0.50808357  0.00660092    -0.03700
N457        N  0.06357491  0.51159811  0.02039986    -0.62500
Mn458      Mn  0.01016515  0.52471265  0.98367171     1.10700
C459        C  0.05749072  0.52947073  0.02950253     1.00400
C460        C  0.05653179  0.53254037  0.93777250     1.00500
N461        N  0.03330631  0.44646273  0.95772101    -0.04800
N462        N  0.03742714  0.43250599  0.94342247    -0.60200
N463        N  0.04802609  0.45897090  0.00522674    -0.04100
N464        N  0.06223859  0.45398317  0.01899494    -0.56900
N465        N  0.03331589  0.44482210  0.00470524    -0.05400
N466        N  0.03728580  0.42991444  0.01804870    -0.59700
N467        N  0.04801678  0.46059258  0.95826526    -0.04400
N468        N  0.06242767  0.45653544  0.94441354    -0.56900
Mn469      Mn  0.00867448  0.44585327  0.98123131     1.20200
Mn470      Mn  0.04901179  0.48430875  0.98242130     1.10100
Cl471      Cl  0.00939456  0.48529821  0.98258395    -0.84900
C472        C  0.05557905  0.43908940  0.93511800     0.97400
C473        C  0.05531169  0.43587825  0.02699684     0.97200
C474        C  0.87243395  0.34896350  0.12049381    -0.01400
C475        C  0.15350935  0.35032799  0.84976210    -0.01400
C476        C  0.14597079  0.62470863  0.84686335    -0.01400
C477        C  0.86824891  0.35080531  0.84755978    -0.01400
C478        C  0.87302534  0.62493897  0.12099601    -0.01400
N479        N  0.73825906  0.49111010  0.70932458    -0.35500
N480        N  0.75960052  0.45726695  0.73045764    -0.56100
N481        N  0.78272286  0.48773114  0.75460210    -0.35500
N482        N  0.76335234  0.52163207  0.73162427    -0.56100
C483        C  0.73121515  0.47476959  0.69828412     0.28000
C484        C  0.73367481  0.50855200  0.69867759     0.28000
C485        C  0.79281023  0.47022056  0.76035292     0.28000
C486        C  0.79367268  0.50405438  0.76186149     0.28000
C487        C  0.74561821  0.44588529  0.71980572     0.36700
C488        C  0.76970106  0.44408329  0.74318160     0.36700
C489        C  0.75051217  0.53475385  0.72157489     0.36700
C490        C  0.77300667  0.53293998  0.74622089     0.36700
C491        C  0.72156934  0.48206733  0.68064562    -0.20800
C492        C  0.72333187  0.50325208  0.68079091    -0.20800
C493        C  0.81027797  0.47559779  0.77169159    -0.20800
C494        C  0.81085894  0.49685915  0.77254498    -0.20800
C495        C  0.74708901  0.42524978  0.72558603    -0.21900
C496        C  0.76232088  0.42410508  0.74030826    -0.21900
C497        C  0.75225253  0.55457857  0.72958660    -0.21900
C498        C  0.76644492  0.55341775  0.74526089    -0.21900
C499        C  0.73259214  0.45351978  0.70392000    -0.17200
C500        C  0.73753224  0.52923440  0.70498913    -0.17200
C501        C  0.78818739  0.52526054  0.75996903    -0.17200
C502        C  0.78615811  0.44954584  0.75666186    -0.17200
H503        H  0.71386524  0.47321795  0.66880900     0.15700
H504        H  0.71740485  0.51359003  0.66908981     0.15700
H505        H  0.82141351  0.46538294  0.77894151     0.15700
H506        H  0.82255631  0.50596597  0.78035158     0.15700
H507        H  0.73841455  0.41224737  0.71956280     0.14000
H508        H  0.76753578  0.41006042  0.74779561     0.14000
H509        H  0.74403667  0.56840315  0.72475774     0.14000
H510        H  0.77135395  0.56620536  0.75484651     0.14000
H511        H  0.74484502  0.49048228  0.72371002     0.27200
H512        H  0.76863029  0.48854070  0.74716313     0.27200
C513        C  0.15036043  0.62192921  0.11580248    -0.01400
C514        C  0.15318664  0.34836411  0.11371905    -0.01400
N515        N  0.27942852  0.98679517  0.74694746    -0.35500
N516        N  0.25718038  0.95480864  0.72472842    -0.56100
N517        N  0.23403844  0.98730396  0.70278480    -0.35500
N518        N  0.25866182  0.01909978  0.72298016    -0.56100
C519        C  0.29034492  0.96969249  0.75227396     0.28000
C520        C  0.29174630  0.00334561  0.75062785     0.28000
C521        C  0.22837508  0.97035629  0.69187711     0.28000
C522        C  0.22835261  0.00428853  0.69187472     0.28000
C523        C  0.26599494  0.94287007  0.73944913     0.36700
C524        C  0.24274825  0.94297569  0.71524958     0.36700
C525        C  0.26856006  0.03091877  0.73700108     0.36700
C526        C  0.24395041  0.03129927  0.71440503     0.36700
C527        C  0.30983678  0.97543982  0.75937887    -0.20800
C528        C  0.31071319  0.99670663  0.75835503    -0.20800
C529        C  0.21867293  0.97673201  0.67390967    -0.20800
C530        C  0.21875985  0.99806476  0.67387753    -0.20800
C531        C  0.25724088  0.92327823  0.73925104    -0.21900
C532        C  0.24270356  0.92325437  0.72377622    -0.21900
C533        C  0.26033160  0.05077663  0.73719306    -0.21900
C534        C  0.24463137  0.05099328  0.72294996    -0.21900
C535        C  0.28268693  0.94916835  0.75216361    -0.17200
C536        C  0.28567592  0.02429754  0.74879834    -0.17200
C537        C  0.23075349  0.02523726  0.69813889    -0.17200
C538        C  0.23050239  0.94937441  0.69826938    -0.17200
H539        H  0.32208163  0.96535534  0.76492523     0.15700
H540        H  0.32371843  0.00622231  0.76305175     0.15700
H541        H  0.21191304  0.96711235  0.66208435     0.15700
H542        H  0.21231429  0.00785979  0.66199053     0.15700
H543        H  0.26113728  0.91026117  0.74899562     0.14000
H544        H  0.23325454  0.91014441  0.71933372     0.14000
H545        H  0.26515552  0.06374349  0.74658542     0.14000
H546        H  0.23491088  0.06419032  0.71925462     0.14000
H547        H  0.26390460  0.98724765  0.74257280     0.27200
H548        H  0.24038632  0.98727671  0.71738512     0.27200
N549        N  0.51003905  0.71678102  0.25411463    -0.35500
N550        N  0.47714940  0.73806443  0.23148032    -0.56100
N551        N  0.50903609  0.75848423  0.20663657    -0.35500
N552        N  0.54175380  0.73987541  0.23174034    -0.56100
C553        C  0.49319674  0.71216307  0.26572574     0.28000
C554        C  0.52712504  0.71275623  0.26556493     0.28000
C555        C  0.49172340  0.76851711  0.20021870     0.28000
C556        C  0.52559301  0.77006615  0.20091770     0.28000
C557        C  0.46544807  0.72411846  0.24181528     0.36700
C558        C  0.46496134  0.74581714  0.21641265     0.36700
C559        C  0.55425971  0.72651568  0.24191564     0.36700
C560        C  0.55372082  0.74920642  0.21740329     0.36700
C561        C  0.49966349  0.70515889  0.28480186    -0.20800
C562        C  0.52107500  0.70548791  0.28468244    -0.20800
C563        C  0.49734761  0.78658438  0.19011380    -0.20800
C564        C  0.51869749  0.78758154  0.19058379    -0.20800
C565        C  0.44564367  0.72324035  0.23345868    -0.21900
C566        C  0.44533078  0.73701075  0.21737816    -0.21900
C567        C  0.57432975  0.72752054  0.23414530    -0.21900
C568        C  0.57400714  0.74198888  0.21867066    -0.21900
C569        C  0.47222975  0.71265725  0.25908162    -0.17200
C570        C  0.54801981  0.71426004  0.25881745    -0.17200
C571        C  0.54679305  0.76483150  0.20381933    -0.17200
C572        C  0.47102417  0.76138112  0.20234897    -0.17200
H573        H  0.48995031  0.70008526  0.29741353     0.15700
H574        H  0.53106779  0.70075297  0.29719482     0.15700
H575        H  0.48712952  0.79788169  0.18307537     0.15700
H576        H  0.52807446  0.79978378  0.18393574     0.15700
H577        H  0.43276947  0.71365409  0.23838170     0.14000
H578        H  0.43216954  0.74015154  0.20750427     0.14000
H579        H  0.58783445  0.71888010  0.23920412     0.14000
H580        H  0.58718482  0.74665837  0.20940985     0.14000
H581        H  0.50992332  0.72096997  0.23875686     0.27200
H582        H  0.50953152  0.74399636  0.21348064     0.27200
N583        N  0.50796588  0.25929430  0.71069195    -0.35500
N584        N  0.47541584  0.23441877  0.72943090    -0.56100
N585        N  0.50772777  0.20780507  0.74752221    -0.35500
N586        N  0.54016903  0.23474925  0.73106390    -0.56100
C587        C  0.49104158  0.27149265  0.70787176     0.28000
C588        C  0.52493408  0.27140054  0.70811970     0.28000
C589        C  0.49038798  0.19933531  0.75586856     0.28000
C590        C  0.52440166  0.20011215  0.75777863     0.28000
C591        C  0.46339747  0.24635147  0.71719067     0.36700
C592        C  0.46322753  0.21878949  0.73607241     0.36700
C593        C  0.55235280  0.24621379  0.71846465     0.36700
C594        C  0.55246620  0.21994959  0.73948903     0.36700
C595        C  0.49731265  0.29156951  0.70355107    -0.20800
C596        C  0.51869486  0.29153197  0.70377291    -0.20800
C597        C  0.49607730  0.18570944  0.77129634    -0.20800
C598        C  0.51737912  0.18597853  0.77233797    -0.20800
C599        C  0.44340092  0.23842012  0.71622665    -0.21900
C600        C  0.44326278  0.22098963  0.72829267    -0.21900
C601        C  0.57246423  0.23847444  0.71868885    -0.21900
C602        C  0.57273160  0.22250406  0.73254943    -0.21900
C603        C  0.47013255  0.26472708  0.70754026    -0.17200
C604        C  0.54587539  0.26447387  0.70807535    -0.17200
C605        C  0.54578553  0.20489470  0.75405243    -0.17200
C606        C  0.46951225  0.20305421  0.74979178    -0.17200
H607        H  0.48747538  0.30482225  0.70035076     0.15700
H608        H  0.52855346  0.30478599  0.70081189     0.15700
H609        H  0.48596143  0.17631577  0.78076932     0.15700
H610        H  0.52646861  0.17636973  0.78254042     0.15700
H611        H  0.43026174  0.24456689  0.70781318     0.14000
H612        H  0.42999306  0.21103783  0.73098801     0.14000
H613        H  0.58583935  0.24398751  0.71023766     0.14000
H614        H  0.58653742  0.21403154  0.73686292     0.14000
H615        H  0.50799462  0.24331606  0.71256562     0.27200
H616        H  0.50807202  0.21784282  0.73518909     0.27200
C617        C  0.64796771  0.12454638  0.84620380    -0.01400
N618        N  0.53388025  0.94859254  0.95889022    -0.05100
N619        N  0.53826884  0.93446799  0.94487530    -0.57200
N620        N  0.54864570  0.96210754  0.00574447    -0.04700
N621        N  0.56279718  0.95811529  0.01988954    -0.59300
N622        N  0.53410392  0.94777125  0.00591611    -0.04300
N623        N  0.53810851  0.93376471  0.02020438    -0.57100
N624        N  0.54799126  0.96336798  0.95868688    -0.04000
N625        N  0.56211626  0.95970721  0.94443493    -0.59700
C626        C  0.55575131  0.94175746  0.93583136     0.97100
C627        C  0.55602189  0.94045780  0.02891131     0.96900
N628        N  0.53409253  0.02543181  0.00754119    -0.05200
N629        N  0.53840745  0.03879129  0.02235046    -0.57700
N630        N  0.54859335  0.01262900  0.95972870    -0.03400
N631        N  0.56286720  0.01759481  0.94592852    -0.59000
N632        N  0.53411859  0.02704791  0.96048520    -0.05300
N633        N  0.53817968  0.04201175  0.94732336    -0.58000
N634        N  0.54845265  0.01087109  0.00677396    -0.03000
N635        N  0.56273239  0.01398853  0.02091212    -0.59100
Mn636      Mn  0.54895281  0.98722109  0.98262658     1.18400
C637        C  0.55630256  0.03136178  0.03061965     0.99200
C638        C  0.55607133  0.03594212  0.93821709     0.99900
N639        N  0.48469467  0.94828229  0.00630695    -0.05300
N640        N  0.48084737  0.93480766  0.02113034    -0.61600
N641        N  0.47034169  0.96327135  0.95894740    -0.04100
N642        N  0.45645509  0.96009620  0.94437574    -0.62300
N643        N  0.48450107  0.94851625  0.95881842    -0.04800
N644        N  0.48045177  0.93496970  0.94410586    -0.61900
N645        N  0.47043922  0.96294532  0.00621362    -0.03700
N646        N  0.45669912  0.95980268  0.02092678    -0.62500
Mn647      Mn  0.50927126  0.94761897  0.98249648     1.10700
C648        C  0.46335472  0.94226358  0.03022095     1.00400
C649        C  0.46293874  0.94243824  0.93511544     1.00500
N650        N  0.48520348  0.02671382  0.95968051    -0.04800
N651        N  0.48145811  0.04066092  0.94525414    -0.60200
N652        N  0.47036845  0.01146020  0.00656604    -0.04100
N653        N  0.45582149  0.01542145  0.02033931    -0.56900
N654        N  0.48464680  0.02603319  0.00670929    -0.05400
N655        N  0.47996568  0.04040023  0.02036106    -0.59700
N656        N  0.47078217  0.01225226  0.95951645    -0.04400
N657        N  0.45689737  0.01614076  0.94513527    -0.56900
Mn658      Mn  0.50951265  0.02685954  0.98368378     1.20200
Mn659      Mn  0.46997263  0.98744879  0.98278068     1.10100
Cl660      Cl  0.50944463  0.98727705  0.98287786    -0.84900
C661        C  0.46378602  0.03378422  0.93621657     0.97400
C662        C  0.46217490  0.03337210  0.02892728     0.97200
C663        C  0.64854530  0.85518386  0.12365291    -0.01400
C664        C  0.37083327  0.85485373  0.84329203    -0.01400
C665        C  0.37324233  0.11843421  0.83851939    -0.01400
C666        C  0.65025507  0.85326036  0.84725890    -0.01400
C667        C  0.37294152  0.85121812  0.12018854    -0.01400
N668        N  0.51282097  0.71984721  0.71249819    -0.35500
N669        N  0.48044182  0.74253176  0.73506036    -0.56100
N670        N  0.51254988  0.76272742  0.75929591    -0.35500
N671        N  0.54498938  0.74252249  0.73433138    -0.56100
C672        C  0.49580500  0.71458388  0.70152131     0.28000
C673        C  0.52971965  0.71454349  0.70122022     0.28000
C674        C  0.49560414  0.77339315  0.76586466     0.28000
C675        C  0.52961378  0.77310713  0.76571440     0.28000
C676        C  0.46809029  0.72979900  0.72404377     0.36700
C677        C  0.46793589  0.75251346  0.74853452     0.36700
C678        C  0.55731748  0.72923596  0.72380180     0.36700
C679        C  0.55721600  0.75171879  0.74847688     0.36700
C680        C  0.50196231  0.70559959  0.68313541    -0.20800
C681        C  0.52334345  0.70560685  0.68293238    -0.20800
C682        C  0.50204444  0.79055494  0.77698920    -0.20800
C683        C  0.52344535  0.79041997  0.77682487    -0.20800
C684        C  0.44757102  0.73194176  0.73031772    -0.21900
C685        C  0.44745227  0.74641733  0.74572136    -0.21900
C686        C  0.57754025  0.73022323  0.73108316    -0.21900
C687        C  0.57748615  0.74448315  0.74670046    -0.21900
C688        C  0.47484326  0.71682162  0.70786283    -0.17200
C689        C  0.55074988  0.71668103  0.70727460    -0.17200
C690        C  0.55062200  0.76709499  0.76253145    -0.17200
C691        C  0.47449673  0.76780775  0.76266785    -0.17200
H692        H  0.49206376  0.69965221  0.67107758     0.15700
H693        H  0.53308612  0.69965789  0.67070195     0.15700
H694        H  0.49237957  0.80204582  0.78448678     0.15700
H695        H  0.53333652  0.80180421  0.78411705     0.15700
H696        H  0.43402606  0.72408999  0.72428922     0.14000
H697        H  0.43378052  0.75190401  0.75379646     0.14000
H698        H  0.59094186  0.72157332  0.72572789     0.14000
H699        H  0.59085717  0.74897040  0.75573949     0.14000
H700        H  0.51285209  0.72560687  0.72729228     0.27200
H701        H  0.51256361  0.74869373  0.75167352     0.27200
C702        C  0.37890236  0.12409371  0.12641098    -0.01400
C703        C  0.64689326  0.12008983  0.12399712    -0.01400
N704        N  0.01546718  0.70912036  0.21185374    -0.35500
N705        N  0.98373504  0.73142880  0.23531740    -0.56100
N706        N  0.01649703  0.75302279  0.25771438    -0.35500
N707        N  0.04818141  0.73298294  0.23212416    -0.56100
C708        C  0.99806124  0.70352113  0.20158568     0.28000
C709        C  0.03196579  0.70479511  0.19959659     0.28000
C710        C  0.99959526  0.76427522  0.26342615     0.28000
C711        C  0.03360386  0.76431995  0.26235762     0.28000
C712        C  0.97140819  0.71726003  0.22605320     0.36700
C713        C  0.97192091  0.74101721  0.24969348     0.36700
C714        C  0.06004670  0.71918017  0.22174282     0.36700
C715        C  0.06067877  0.74176120  0.24632731     0.36700
C716        C  0.00360961  0.69535266  0.18264400    -0.20800
C717        C  0.02496950  0.69612422  0.18140736    -0.20800
C718        C  0.00609133  0.78283786  0.27202095    -0.20800
C719        C  0.02749591  0.78289004  0.27129810    -0.20800
C720        C  0.95161940  0.71792271  0.23454494    -0.21900
C721        C  0.95191693  0.73303848  0.24943698    -0.21900
C722        C  0.08024163  0.71938827  0.22917989    -0.21900
C723        C  0.08059675  0.73356016  0.24489252    -0.21900
C724        C  0.97735321  0.70478321  0.20909560    -0.17200
C725        C  0.05319124  0.70729352  0.20486647    -0.17200
C726        C  0.05460933  0.75792751  0.25973148    -0.17200
C727        C  0.97851253  0.75792047  0.26192538    -0.17200
H728        H  0.99333790  0.68937524  0.17091187     0.15700
H729        H  0.03427414  0.69074557  0.16860545     0.15700
H730        H  0.99643131  0.79508759  0.27825138     0.15700
H731        H  0.03744048  0.79522225  0.27678603     0.15700
H732        H  0.93825679  0.70872275  0.23023065     0.14000
H733        H  0.93884246  0.73776810  0.25883953     0.14000
H734        H  0.09335833  0.71030023  0.22384864     0.14000
H735        H  0.09404773  0.73749188  0.25406203     0.14000
H736        H  0.01610820  0.71448607  0.22682754     0.27200
H737        H  0.01645949  0.73800417  0.25203519     0.27200
N738        N  0.73975845  0.98833723  0.21789194    -0.35500
N739        N  0.76471611  0.95609685  0.23789514    -0.56100
N740        N  0.78431417  0.98809473  0.26326803    -0.35500
N741        N  0.76163212  0.02039187  0.24100509    -0.56100
C742        C  0.73442825  0.97166794  0.20643820     0.28000
C743        C  0.73301096  0.00546553  0.20788894     0.28000
C744        C  0.79624823  0.97138018  0.26785847     0.28000
C745        C  0.79494870  0.00523261  0.26913789     0.28000
C746        C  0.75105601  0.94392986  0.22769241     0.36700
C747        C  0.77451595  0.94378535  0.25165704     0.36700
C748        C  0.74755819  0.03256150  0.23137212     0.36700
C749        C  0.77126649  0.03247163  0.25500621     0.36700
C750        C  0.72386277  0.97825620  0.18908313    -0.20800
C751        C  0.72287731  0.99949727  0.19003309    -0.20800
C752        C  0.81460399  0.97802295  0.27690219    -0.20800
C753        C  0.81375021  0.99931264  0.27776297    -0.20800
C754        C  0.75237417  0.92373570  0.23480957    -0.21900
C755        C  0.76712665  0.92366288  0.25006188    -0.21900
C756        C  0.74845372  0.05256276  0.23912914    -0.21900
C757        C  0.76339202  0.05247820  0.25416000    -0.21900
C758        C  0.73785095  0.95059737  0.21160161    -0.17200
C759        C  0.73495026  0.02628135  0.21472178    -0.17200
C760        C  0.78795289  0.02606264  0.26765147    -0.17200
C761        C  0.79074791  0.95024761  0.26492457    -0.17200
H762        H  0.71732682  0.96874471  0.17702977     0.15700
H763        H  0.71531154  0.00932552  0.17884702     0.15700
H764        H  0.82736653  0.96852785  0.28231968     0.15700
H765        H  0.82568650  0.00930856  0.28399129     0.15700
H766        H  0.74354503  0.91045940  0.22962849     0.14000
H767        H  0.77188142  0.91028924  0.25892415     0.14000
H768        H  0.73948541  0.06591648  0.23432030     0.14000
H769        H  0.76812554  0.06572688  0.26320283     0.14000
H770        H  0.74672816  0.98795738  0.23216418     0.27200
H771        H  0.76930405  0.98774458  0.25750480     0.27200
N772        N  0.78597747  0.22038376  0.48362063    -0.35500
N773        N  0.76332726  0.24507747  0.45338780    -0.56100
N774        N  0.73836032  0.26283226  0.48638798    -0.35500
N775        N  0.76294018  0.24021741  0.51698486    -0.56100
C776        C  0.79755245  0.21713306  0.46650094     0.28000
C777        C  0.79798328  0.21549802  0.50002481     0.28000
C778        C  0.73279209  0.27543981  0.47068370     0.28000
C779        C  0.73152931  0.27171837  0.50397734     0.28000
C780        C  0.77364934  0.23231600  0.44040695     0.36700
C781        C  0.74946269  0.25580450  0.44192941     0.36700
C782        C  0.77314423  0.22539774  0.52772036     0.36700
C783        C  0.74712569  0.24692539  0.52903016     0.36700
C784        C  0.81709127  0.20995310  0.47212348    -0.20800
C785        C  0.81747823  0.20927955  0.49319770    -0.20800
C786        C  0.72206427  0.29242337  0.47845940    -0.20800
C787        C  0.72133915  0.29011277  0.49940637    -0.20800
C788        C  0.76656552  0.23522381  0.42053132    -0.21900
C789        C  0.75134166  0.25016076  0.42147936    -0.21900
C790        C  0.76376329  0.22273524  0.54671600    -0.21900
C791        C  0.74735692  0.23645507  0.54758095    -0.21900
C792        C  0.79049301  0.21932008  0.44597868    -0.17200
C793        C  0.79135765  0.21499832  0.52085409    -0.17200
C794        C  0.73323661  0.26319228  0.52394755    -0.17200
C795        C  0.73597393  0.27145259  0.44948269    -0.17200
H796        H  0.82986670  0.20558318  0.46221414     0.15700
H797        H  0.83059604  0.20440065  0.50241503     0.15700
H798        H  0.71516515  0.30510242  0.46999140     0.15700
H799        H  0.71392490  0.30071067  0.51003921     0.15700
H800        H  0.77213466  0.22778981  0.40667937     0.14000
H801        H  0.74285191  0.25631309  0.40850964     0.14000
H802        H  0.76824197  0.21204343  0.55871870     0.14000
H803        H  0.73680060  0.23849384  0.56038623     0.14000
H804        H  0.77029864  0.22425890  0.48396742     0.27200
H805        H  0.74533525  0.24839307  0.48517921     0.27200
N806        N  0.23349710  0.74857942  0.48471313    -0.35500
N807        N  0.25883038  0.72693387  0.51528705    -0.56100
N808        N  0.27841887  0.70321237  0.48257393    -0.35500
N809        N  0.25515072  0.72701999  0.45209915    -0.56100
C810        C  0.23025240  0.75994682  0.50185786     0.28000
C811        C  0.22918170  0.76091303  0.46843689     0.28000
C812        C  0.29129627  0.69923065  0.49853828     0.28000
C813        C  0.28898702  0.69875449  0.46513270     0.28000
C814        C  0.24397813  0.73517812  0.52751409     0.36700
C815        C  0.26824342  0.71190267  0.52634033     0.36700
C816        C  0.23994070  0.73641076  0.44117748     0.36700
C817        C  0.26299291  0.71182283  0.44006390     0.36700
C818        C  0.22377365  0.77971945  0.49651208    -0.20800
C819        C  0.22328763  0.78040237  0.47540449    -0.20800
C820        C  0.31028205  0.69220391  0.49112452    -0.20800
C821        C  0.30871879  0.69158345  0.47010644    -0.20800
C822        C  0.24392645  0.72541027  0.54643825    -0.21900
C823        C  0.25929629  0.71057259  0.54567497    -0.21900
C824        C  0.23799697  0.72701969  0.42214929    -0.21900
C825        C  0.25276930  0.71160485  0.42134572    -0.21900
C826        C  0.23159864  0.75239843  0.52215998    -0.17200
C827        C  0.22928368  0.75452974  0.44760156    -0.17200
C828        C  0.28075803  0.69987730  0.44500641    -0.17200
C829        C  0.28584708  0.70061170  0.51958505    -0.17200
H830        H  0.21978139  0.79231838  0.50677652     0.15700
H831        H  0.21891072  0.79371393  0.46626972     0.15700
H832        H  0.32384443  0.68774047  0.49990725     0.15700
H833        H  0.32080967  0.68631609  0.45978303     0.15700
H834        H  0.23400344  0.72875716  0.55946466     0.14000
H835        H  0.26352732  0.70014647  0.55799449     0.14000
H836        H  0.22738373  0.73113082  0.40992941     0.14000
H837        H  0.25583894  0.70169115  0.40829485     0.14000
H838        H  0.23706275  0.73284641  0.48430146     0.27200
H839        H  0.26284890  0.70752842  0.48352101     0.27200
C840        C  0.87566670  0.12956027  0.34833486    -0.01400
N841        N  0.99034067  0.01524405  0.52206560    -0.05100
N842        N  0.98580167  0.02884486  0.53654519    -0.57200
N843        N  0.97553539  0.96778349  0.50781531    -0.04700
N844        N  0.96100065  0.95399146  0.51209103    -0.59300
N845        N  0.98980590  0.96792393  0.52226754    -0.04300
N846        N  0.98523308  0.95427101  0.53665277    -0.57100
N847        N  0.97580550  0.01521188  0.50784670    -0.04000
N848        N  0.96113068  0.02882699  0.51243220    -0.59700
C849        C  0.96761326  0.03734927  0.53030446     0.97100
C850        C  0.96729790  0.94558116  0.53007563     0.96900
N851        N  0.99062321  0.96759943  0.44484860    -0.05200
N852        N  0.98731255  0.95274599  0.43127143    -0.57700
N853        N  0.97597545  0.01526560  0.45920822    -0.03400
N854        N  0.96176560  0.02956436  0.45535261    -0.59000
N855        N  0.99061808  0.01553623  0.44506839    -0.05300
N856        N  0.98660314  0.03009276  0.43132202    -0.58000
N857        N  0.97604765  0.96742837  0.45905025    -0.03000
N858        N  0.96252023  0.95245307  0.45534190    -0.59100
Mn859      Mn  0.97531732  0.99139951  0.48342192     1.18400
C860        C  0.96978033  0.94329089  0.43799725     0.99200
C861        C  0.96861022  0.03885480  0.43799621     0.99900
N862        N  0.03887905  0.96708092  0.52252317    -0.05300
N863        N  0.04223684  0.95269774  0.53652831    -0.61600
N864        N  0.05439520  0.01439804  0.50836694    -0.04100
N865        N  0.06902440  0.02807666  0.51279397    -0.62300
N866        N  0.03989181  0.01446115  0.52266030    -0.04800
N867        N  0.04453132  0.02792439  0.53722321    -0.61900
N868        N  0.05343078  0.96649774  0.50830623    -0.03700
N869        N  0.06693918  0.95154069  0.51234549    -0.62500
Mn870      Mn  0.01474820  0.99125185  0.52280127     1.10700
C871        C  0.05967853  0.94297228  0.52994798     1.00400
C872        C  0.06253454  0.03653584  0.53070941     1.00500
N873        N  0.04051693  0.01480404  0.44531416    -0.04800
N874        N  0.04561571  0.02836622  0.43096233    -0.60200
N875        N  0.05410610  0.96697619  0.45943511    -0.04100
N876        N  0.06864771  0.95322789  0.45483345    -0.56900
N877        N  0.03973657  0.96736809  0.44506733    -0.05400
N878        N  0.04416945  0.95379692  0.43052303    -0.59700
N879        N  0.05496680  0.01420560  0.45961866    -0.04400
N880        N  0.07013086  0.02726305  0.45522421    -0.56900
Mn881      Mn  0.01530988  0.99143785  0.44456470     1.20200
Mn882      Mn  0.05470981  0.99049305  0.48397860     1.10100
Cl883      Cl  0.01502956  0.99120709  0.48367618    -0.84900
C884        C  0.06407885  0.03612725  0.43739335     0.97400
C885        C  0.06217448  0.94497251  0.43683874     0.97200
C886        C  0.88147990  0.84951500  0.34649237    -0.01400
C887        C  0.14937198  0.84809770  0.34713600    -0.01400
C888        C  0.14537565  0.84317019  0.61755246    -0.01400
C889        C  0.87798673  0.12855146  0.62233244    -0.01400
C890        C  0.87511202  0.85321760  0.61846260    -0.01400
N891        N  0.78702687  0.76119813  0.48200604    -0.35500
N892        N  0.76668418  0.73676937  0.45030351    -0.56100
N893        N  0.74160638  0.71661256  0.48221669    -0.35500
N894        N  0.76463262  0.73857584  0.51396188    -0.56100
C895        C  0.79908398  0.76556932  0.46554496     0.28000
C896        C  0.79793007  0.76658240  0.49889894     0.28000
C897        C  0.73595235  0.70546005  0.46555052     0.28000
C898        C  0.73540942  0.70597010  0.49906390     0.28000
C899        C  0.77659963  0.75071313  0.43827250     0.36700
C900        C  0.75234418  0.72740945  0.43832842     0.36700
C901        C  0.77390988  0.75308124  0.52574077     0.36700
C902        C  0.75027628  0.72922067  0.52593004     0.36700
C903        C  0.81784747  0.77385165  0.47206631    -0.20800
C904        C  0.81709805  0.77453991  0.49311942    -0.20800
C905        C  0.72580604  0.68759694  0.47189815    -0.20800
C906        C  0.72541823  0.68794661  0.49299864    -0.20800
C907        C  0.76873961  0.75001079  0.41851236    -0.21900
C908        C  0.75337488  0.73526432  0.41854305    -0.21900
C909        C  0.76558615  0.75281261  0.54536906    -0.21900
C910        C  0.75066566  0.73759758  0.54552180    -0.21900
C911        C  0.79308790  0.76360856  0.44477110    -0.17200
C912        C  0.79060233  0.76571101  0.51932479    -0.17200
C913        C  0.73760119  0.71249697  0.51972213    -0.17200
C914        C  0.73879637  0.71137338  0.44475735    -0.17200
H915        H  0.83067710  0.77906044  0.46261499     0.15700
H916        H  0.82923932  0.78037737  0.50304732     0.15700
H917        H  0.71925578  0.67555605  0.46232654     0.15700
H918        H  0.71843103  0.67628600  0.50274219     0.15700
H919        H  0.77346726  0.75922960  0.40545131     0.14000
H920        H  0.74395904  0.73092932  0.40548260     0.14000
H921        H  0.76995243  0.76241479  0.55828045     0.14000
H922        H  0.74122524  0.73318776  0.55857051     0.14000
H923        H  0.77169181  0.75623724  0.48169855     0.27200
H924        H  0.74832807  0.73117240  0.48201531     0.27200
C925        C  0.15181495  0.13219940  0.34731499    -0.01400
C926        C  0.14930852  0.13457482  0.61852519    -0.01400
N927        N  0.00808525  0.75890006  0.71312219    -0.35500
N928        N  0.03923673  0.73302801  0.73311276    -0.56100
N929        N  0.00644944  0.71515273  0.75900966    -0.35500
N930        N  0.97494790  0.73885437  0.73683082    -0.56100
C931        C  0.02478395  0.76138325  0.70063455     0.28000
C932        C  0.99093897  0.76384573  0.70209005     0.28000
C933        C  0.02278652  0.70285836  0.76407446     0.28000
C934        C  0.98889422  0.70592189  0.76606621     0.28000
C935        C  0.05197094  0.74626176  0.72303730     0.36700
C936        C  0.05116638  0.72299525  0.74700384     0.36700
C937        C  0.96398155  0.75430794  0.72783956     0.36700
C938        C  0.96306006  0.73140308  0.75232391     0.36700
C939        C  0.01824034  0.76801401  0.68150255    -0.20800
C940        C  0.99689127  0.76932338  0.68232257    -0.20800
C941        C  0.01557989  0.68572661  0.77474011    -0.20800
C942        C  0.99429653  0.68769526  0.77610579    -0.20800
C943        C  0.07208975  0.74454246  0.73043047    -0.21900
C944        C  0.07159866  0.72975418  0.74558878    -0.21900
C945        C  0.94505620  0.75680794  0.73778668    -0.21900
C946        C  0.94432222  0.74209933  0.75304353    -0.21900
C947        C  0.04584776  0.75886245  0.70638389    -0.17200
C948        C  0.97025791  0.76492420  0.70979224    -0.17200
C949        C  0.96831203  0.71404233  0.76467500    -0.17200
C950        C  0.04412167  0.70715644  0.76031892    -0.17200
H951        H  0.02786176  0.77147239  0.66829842     0.15700
H952        H  0.98691283  0.77397111  0.66977404     0.15700
H953        H  0.02473258  0.67320428  0.78114521     0.15700
H954        H  0.98410374  0.67698397  0.78395847     0.15700
H955        H  0.08571817  0.75292146  0.72531415     0.14000
H956        H  0.08479034  0.72456396  0.75454024     0.14000
H957        H  0.93285437  0.76781228  0.73422179     0.14000
H958        H  0.93137332  0.73959419  0.76335748     0.14000
H959        H  0.00850418  0.75543222  0.72868809     0.27200
H960        H  0.00737130  0.72953978  0.75202177     0.27200
N961        N  0.74268503  0.98997936  0.75648666    -0.35500
N962        N  0.76465979  0.02209688  0.73372175    -0.56100
N963        N  0.78807524  0.98999812  0.71266648    -0.35500
N964        N  0.76354320  0.95780483  0.73325241    -0.56100
C965        C  0.73109216  0.00706578  0.76032471     0.28000
C966        C  0.73042726  0.97332118  0.75992340     0.28000
C967        C  0.79208730  0.00692095  0.70101217     0.28000
C968        C  0.79169840  0.97307591  0.70091189     0.28000
C969        C  0.75660960  0.03330415  0.74934569     0.36700
C970        C  0.78061563  0.03327856  0.72605690     0.36700
C971        C  0.75510000  0.94633535  0.74848062     0.36700
C972        C  0.77907124  0.94631790  0.72508253     0.36700
C973        C  0.71115839  0.00128270  0.76604942    -0.20800
C974        C  0.71067918  0.97994040  0.76564249    -0.20800
C975        C  0.79806207  0.00062024  0.68150542    -0.20800
C976        C  0.79799079  0.97923641  0.68150678    -0.20800
C977        C  0.76739257  0.05170220  0.75166224    -0.21900
C978        C  0.78282256  0.05158163  0.73703204    -0.21900
C979        C  0.76542450  0.92749799  0.75005981    -0.21900
C980        C  0.78048710  0.92739529  0.73502717    -0.21900
C981        C  0.73876656  0.02754659  0.76049558    -0.17200
C982        C  0.73738416  0.95246549  0.75990796    -0.17200
C983        C  0.79092040  0.95232734  0.70786843    -0.17200
C984        C  0.79186978  0.02770379  0.70822189    -0.17200
H985        H  0.69841429  0.01138997  0.77037123     0.15700
H986        H  0.69743798  0.97037708  0.76956500     0.15700
H987        H  0.80229100  0.01038769  0.66867136     0.15700
H988        H  0.80220753  0.96933881  0.66873685     0.15700
H989        H  0.76443230  0.06389364  0.76270966     0.14000
H990        H  0.79418200  0.06370020  0.73461673     0.14000
H991        H  0.76237349  0.91507078  0.76078721     0.14000
H992        H  0.79125011  0.91487679  0.73179487     0.14000
H993        H  0.75858757  0.98971274  0.75341921     0.27200
H994        H  0.78454323  0.98991562  0.72825773     0.27200
N995        N  0.77841744  0.71398300  0.98698745    -0.35500
N996        N  0.75905391  0.73981268  0.01821514    -0.56100
N997        N  0.73371817  0.75929707  0.98646978    -0.35500
N998        N  0.75517988  0.73545311  0.95506531    -0.56100
C999        C  0.79078329  0.71012608  0.00332932     0.28000
C1000       C  0.78918784  0.70846695  0.96997511     0.28000
C1001       C  0.73154525  0.77260895  0.00240732     0.28000
C1002       C  0.72928690  0.76999081  0.96912240     0.28000
C1003       C  0.76856793  0.72580408  0.03046998     0.36700
C1004       C  0.74554654  0.75042895  0.03020009     0.36700
C1005       C  0.76339691  0.71971545  0.94404609     0.36700
C1006       C  0.73928209  0.74314678  0.94388662     0.36700
C1007       C  0.80957158  0.70190330  0.99659215    -0.20800
C1008       C  0.80862340  0.70103620  0.97554181    -0.20800
C1009       C  0.72576203  0.79196239  0.99513621    -0.20800
C1010       C  0.72452799  0.79037251  0.97412560    -0.20800
C1011       C  0.76128407  0.72772299  0.05041185    -0.21900
C1012       C  0.74658791  0.74324398  0.05021583    -0.21900
C1013       C  0.75276850  0.71734482  0.92574171    -0.21900
C1014       C  0.73724247  0.73202828  0.92576026    -0.21900
C1015       C  0.78489926  0.71253502  0.02412730    -0.17200
C1016       C  0.78137112  0.70863283  0.94972185    -0.17200
C1017       C  0.72826777  0.76140905  0.94909869    -0.17200
C1018       C  0.73340190  0.76739572  0.02342189    -0.17200
H1019       H  0.82261663  0.69683150  0.00577535     0.15700
H1020       H  0.82074016  0.69522117  0.96550549     0.15700
H1021       H  0.72275059  0.80579958  0.00407075     0.15700
H1022       H  0.72043352  0.80280986  0.96374208     0.15700
H1023       H  0.76622807  0.71907189  0.06377039     0.14000
H1024       H  0.73789024  0.74874234  0.06337109     0.14000
H1025       H  0.75593862  0.70626264  0.91365055     0.14000
H1026       H  0.72603009  0.73445685  0.91362524     0.14000
H1027       H  0.76298024  0.71878397  0.98752601     0.27200
H1028       H  0.73664063  0.74345393  0.98750453     0.27200
C1029       C  0.91169375  0.83568405  0.66245192    -0.27100
C1030       C  0.91309835  0.81410817  0.65986956     0.06500
C1031       C  0.90092875  0.80491675  0.64438390     0.26100
C1032       C  0.88782721  0.81702001  0.63207392    -0.11600
C1033       C  0.88782256  0.83894976  0.63330295    -0.25600
C1034       C  0.89994413  0.84793791  0.64912687     0.36900
C1035       C  0.92739612  0.80159184  0.67320195     0.06500
F1036       F  0.90212056  0.78427628  0.64047229    -0.19400
H1037       H  0.87814060  0.80875923  0.62138493     0.16300
F1038       F  0.90079162  0.86880367  0.65160688    -0.23100
H1039       H  0.91995711  0.84333362  0.67475093     0.18100
C1040       C  0.94683453  0.80955668  0.67945526     0.26100
C1041       C  0.95987548  0.79803727  0.69226748    -0.11600
C1042       C  0.95474592  0.77770886  0.69809263    -0.25600
C1043       C  0.93558643  0.76948860  0.69154163     0.37000
C1044       C  0.92186684  0.78153018  0.67980301    -0.27300
F1045       F  0.95382352  0.82811503  0.67249988    -0.19400
H1046       H  0.97457068  0.80472064  0.69696613     0.16300
F1047       F  0.93029289  0.74964621  0.69605867    -0.23100
H1048       H  0.90692579  0.77498161  0.67582452     0.18100
C1049       C  0.83653836  0.87236022  0.66049508    -0.27100
C1050       C  0.83924206  0.89391460  0.66009274     0.06500
C1051       C  0.85368095  0.90240363  0.64635531     0.26100
C1052       C  0.86498912  0.88964200  0.63311184    -0.11600
C1053       C  0.86204563  0.86785429  0.63271024    -0.25600
C1054       C  0.84803388  0.85945166  0.64735687     0.36900
C1055       C  0.82685800  0.90764820  0.67372976     0.06500
F1056       F  0.85674725  0.92321316  0.64553295    -0.19400
H1057       H  0.87647184  0.89724666  0.62370490     0.16300
F1058       F  0.84535101  0.83863543  0.64886586    -0.23100
H1059       H  0.82567584  0.86548239  0.67122640     0.18100
C1060       C  0.83671475  0.92200293  0.68674708     0.26100
C1061       C  0.82491337  0.93632644  0.69795290    -0.11600
C1062       C  0.80313405  0.93636214  0.69661636    -0.25600
C1063       C  0.79320327  0.92149706  0.68430105     0.37000
C1064       C  0.80501447  0.90726985  0.67292391    -0.27300
F1065       F  0.85775322  0.92213759  0.68862182    -0.19400
H1066       H  0.83274940  0.94750748  0.70762970     0.16300
F1067       F  0.77214117  0.92118778  0.68282740    -0.23100
H1068       H  0.79714156  0.89634245  0.66299821     0.18100
C1069       C  0.85829718  0.81544096  0.57530879    -0.27100
C1070       C  0.83658215  0.81651950  0.57607445     0.06500
C1071       C  0.82705964  0.83028583  0.58982473     0.26100
C1072       C  0.83913210  0.84225090  0.60314177    -0.11600
C1073       C  0.86112177  0.84041892  0.60355162    -0.25600
C1074       C  0.87043125  0.82736347  0.58853619     0.36900
C1075       C  0.82404893  0.80337998  0.56226448     0.06500
F1076       F  0.80600104  0.83190612  0.59064213    -0.19400
H1077       H  0.83087315  0.85303377  0.61283170     0.16300
F1078       F  0.89143370  0.82568137  0.58695057    -0.23100
H1079       H  0.86591483  0.80531890  0.56433962     0.18100
C1080       C  0.82643658  0.78169638  0.56243267     0.26100
C1081       C  0.81509891  0.76940297  0.54880637    -0.11600
C1082       C  0.80141831  0.77860686  0.53476640    -0.25600
C1083       C  0.79889090  0.80023425  0.53466631     0.37000
C1084       C  0.81006114  0.81251936  0.54842641    -0.27300
F1085       F  0.83968591  0.77245527  0.57582354    -0.19400
H1086       H  0.81722757  0.75273853  0.54892104     0.16300
F1087       F  0.78583903  0.80940586  0.52103802    -0.23100
H1088       H  0.80817278  0.82920643  0.54798506     0.18100
C1089       C  0.80706048  0.07898843  0.68295330    -0.27100
C1090       C  0.82753574  0.07498578  0.67625203     0.06500
C1091       C  0.83600407  0.05511073  0.68018614     0.26100
C1092       C  0.82454596  0.04019188  0.69087439    -0.11600
C1093       C  0.80391258  0.04402189  0.69689756    -0.25600
C1094       C  0.79512771  0.06352333  0.69234235     0.36900
C1095       C  0.83968767  0.09099301  0.66454382     0.06500
F1096       F  0.85512388  0.04962324  0.67314969    -0.19400
H1097       H  0.83176955  0.02537592  0.69416424     0.16300
F1098       F  0.77490468  0.06766150  0.69684838    -0.23100
H1099       H  0.80005662  0.09409851  0.68094840     0.18100
C1100       C  0.83010524  0.10467999  0.65051903     0.26100
C1101       C  0.84209401  0.11780669  0.63815323    -0.11600
C1102       C  0.86405410  0.11654575  0.63793709    -0.25600
C1103       C  0.87344287  0.10410348  0.65330759     0.37000
C1104       C  0.86141969  0.09208626  0.66661413    -0.27300
F1105       F  0.80917729  0.10490786  0.64784342    -0.19400
H1106       H  0.83377006  0.12848262  0.62843059     0.16300
F1107       F  0.89444554  0.10271855  0.65492762    -0.23100
H1108       H  0.86938621  0.08308607  0.67820467     0.18100
C1109       C  0.12206160  0.81527775  0.66592252    -0.27100
C1110       C  0.10707298  0.80241687  0.65693001     0.06500
C1111       C  0.10568337  0.80180348  0.63546851     0.26100
C1112       C  0.11846185  0.81445893  0.62338421    -0.11600
C1113       C  0.13253263  0.82879909  0.63220871    -0.25600
C1114       C  0.13492366  0.82797021  0.65391148     0.36900
C1115       C  0.09214522  0.79074725  0.67005449     0.06500
F1116       F  0.09123146  0.78972293  0.62616298    -0.19400
H1117       H  0.11672548  0.81373642  0.60687282     0.16300
F1118       F  0.15005934  0.83853638  0.66387075    -0.23100
H1119       H  0.12386130  0.81544371  0.68244768     0.18100
C1120       C  0.08971157  0.76910519  0.66832096     0.26100
C1121       C  0.07489465  0.75870577  0.68036238    -0.11600
C1122       C  0.06213281  0.76973006  0.69409689    -0.25600
C1123       C  0.06464546  0.79128376  0.69589223     0.37000
C1124       C  0.07964488  0.80161352  0.68414070    -0.27300
F1125       F  0.10176136  0.75802472  0.65514927    -0.19400
H1126       H  0.07317131  0.74207719  0.67882008     0.16300
F1127       F  0.05247920  0.80234619  0.70897083    -0.23100
H1128       H  0.08118115  0.81826436  0.68567300     0.18100
C1129       C  0.86290522  0.80868572  0.38615172    -0.27100
C1130       C  0.84156456  0.81278657  0.38781957     0.06500
C1131       C  0.83318702  0.82966569  0.37702067     0.26100
C1132       C  0.84578619  0.84159768  0.36409935    -0.11600
C1133       C  0.86711866  0.83682603  0.36118035    -0.25600
C1134       C  0.87560932  0.82077389  0.37350856     0.36900
C1135       C  0.82840402  0.80003015  0.40163093     0.06500
F1136       F  0.81269136  0.83452464  0.37877468    -0.19400
H1137       H  0.83859608  0.85476679  0.35672481     0.16300
F1138       F  0.89623851  0.81629091  0.37289629    -0.23100
H1139       H  0.86985544  0.79623330  0.39495777     0.18100
C1140       C  0.82822479  0.77824009  0.40012276     0.26100
C1141       C  0.81645987  0.76640871  0.41391057    -0.11600
C1142       C  0.80461854  0.77611819  0.42928818    -0.25600
C1143       C  0.80445522  0.79788192  0.43049790     0.37000
C1144       C  0.81630445  0.80967752  0.41685008    -0.27300
F1145       F  0.83926637  0.76843295  0.38521633    -0.19400
H1146       H  0.81673883  0.74965572  0.41276067     0.16300
F1147       F  0.79300771  0.80769155  0.44510414    -0.23100
H1148       H  0.81634254  0.82639556  0.41841769     0.18100
C1149       C  0.11010837  0.09209152  0.60204158    -0.27100
C1150       C  0.11416107  0.08975230  0.58099093     0.06500
C1151       C  0.13082767  0.10085959  0.57239070     0.26100
C1152       C  0.14232426  0.11475441  0.58430034    -0.11600
C1153       C  0.13729884  0.11853166  0.60511731    -0.25600
C1154       C  0.12177277  0.10578623  0.61404758     0.36900
C1155       C  0.10090217  0.07596164  0.56807918     0.06500
F1156       F  0.13636623  0.09799359  0.55248311    -0.19400
H1157       H  0.15539424  0.12226070  0.57700810     0.16300
F1158       F  0.11713623  0.10723171  0.63431559    -0.23100
H1159       H  0.09750066  0.08366051  0.60922204     0.18100
C1160       C  0.09475286  0.05619299  0.57501679     0.26100
C1161       C  0.08186679  0.04371840  0.56291278    -0.11600
C1162       C  0.07540580  0.05035469  0.54345235    -0.25600
C1163       C  0.08172386  0.06984763  0.53628233     0.37000
C1164       C  0.09405317  0.08265501  0.54864142    -0.27300
F1165       F  0.10171602  0.04859815  0.59317632    -0.19400
H1166       H  0.07736906  0.02855881  0.56851238     0.16300
F1167       F  0.07557147  0.07668672  0.51755448    -0.23100
H1168       H  0.09812545  0.09792081  0.54303984     0.18100
C1169       C  0.11059347  0.06631389  0.41710741    -0.27100
C1170       C  0.10163664  0.07764621  0.40094268     0.06500
C1171       C  0.08015052  0.07556785  0.39726804     0.26100
C1172       C  0.06807662  0.06213959  0.40921671    -0.11600
C1173       C  0.07703116  0.05075283  0.42531093    -0.25600
C1174       C  0.09846701  0.05309088  0.42925328     0.36900
C1175       C  0.11474196  0.09123495  0.38770925     0.06500
F1176       F  0.07071807  0.08682138  0.38233675    -0.19400
H1177       H  0.05161777  0.06075907  0.40593942     0.16300
F1178       F  0.10791150  0.04216540  0.44442063    -0.23100
H1179       H  0.12713280  0.06736762  0.42009579     0.18100
C1180       C  0.12893653  0.10532374  0.39623455     0.26100
C1181       C  0.14095890  0.11811840  0.38358638    -0.11600
C1182       C  0.13878764  0.11789145  0.36192293    -0.25600
C1183       C  0.12511528  0.10284528  0.35357909     0.37000
C1184       C  0.11328037  0.08993170  0.36627891    -0.27300
F1185       F  0.13101710  0.10703397  0.41689451    -0.19400
H1186       H  0.15216523  0.12786160  0.39118978     0.16300
F1187       F  0.12293215  0.10079364  0.33296983    -0.23100
H1188       H  0.10297178  0.07872039  0.35927159     0.18100
C1189       C  0.89414251  0.89162646  0.57680062    -0.27100
C1190       C  0.91586793  0.88985662  0.57791805     0.06500
C1191       C  0.92450006  0.87532709  0.59153128     0.26100
C1192       C  0.91172008  0.86356658  0.60436878    -0.11600
C1193       C  0.88981196  0.86591043  0.60415310    -0.25600
C1194       C  0.88128507  0.87956548  0.58929742     0.36900
C1195       C  0.92943065  0.90351787  0.56529864     0.06500
F1196       F  0.94538110  0.87214120  0.59218460    -0.19400
H1197       H  0.91934455  0.85239579  0.61413284     0.16300
F1198       F  0.86036699  0.88188774  0.58742545    -0.23100
H1199       H  0.88701639  0.90272210  0.56650327     0.18100
C1200       C  0.92520416  0.90718591  0.54441589     0.26100
C1201       C  0.93773800  0.92066987  0.53303503    -0.11600
C1202       C  0.95483960  0.93059885  0.54211871    -0.25600
C1203       C  0.95925677  0.92670625  0.56291771     0.37000
C1204       C  0.94656694  0.91345171  0.57434940    -0.27300
F1205       F  0.90915290  0.89752921  0.53488473    -0.19400
H1206       H  0.93404080  0.92332951  0.51704268     0.16300
F1207       F  0.97544578  0.93612515  0.57246102    -0.23100
H1208       H  0.94993194  0.91128212  0.59048358     0.18100
C1209       C  0.90107205  0.07962919  0.59477154    -0.27100
C1210       C  0.91667189  0.08873255  0.58284517     0.06500
C1211       C  0.91901533  0.11025151  0.58302641     0.26100
C1212       C  0.90592162  0.12251643  0.59508558    -0.11600
C1213       C  0.89103553  0.11364268  0.60850193    -0.25600
C1214       C  0.88826615  0.09176403  0.60739244     0.36900
C1215       C  0.92984226  0.07585233  0.56939084     0.06500
F1216       F  0.93399837  0.11940579  0.57148134    -0.19400
H1217       H  0.90801526  0.13916628  0.59465085     0.16300
F1218       F  0.87266493  0.08184891  0.61735864    -0.23100
H1219       H  0.89868358  0.06301539  0.59415296     0.18100
C1220       C  0.94990772  0.06993989  0.57549521     0.26100
C1221       C  0.96231537  0.05787169  0.56246678    -0.11600
C1222       C  0.95488985  0.05152171  0.54315634    -0.25600
C1223       C  0.93482031  0.05781506  0.53700886     0.37000
C1224       C  0.92243397  0.06981786  0.55010397    -0.27300
F1225       F  0.95734514  0.07560575  0.59415351    -0.19400
H1226       H  0.97764251  0.05324479  0.56764591     0.16300
F1227       F  0.92699016  0.05220517  0.51850320    -0.23100
H1228       H  0.90700469  0.07444524  0.54520259     0.18100
C1229       C  0.09628215  0.89908386  0.54485519    -0.27100
C1230       C  0.09334385  0.89823586  0.56623314     0.06500
C1231       C  0.07875347  0.91170535  0.57533553     0.26100
C1232       C  0.06748722  0.92571886  0.56330399    -0.11600
C1233       C  0.07072605  0.92688826  0.54201036    -0.25600
C1234       C  0.08508119  0.91324323  0.53281324     0.36900
C1235       C  0.10609751  0.88393820  0.57902493     0.06500
F1236       F  0.07605147  0.91201018  0.59599281    -0.19400
H1237       H  0.05667500  0.93617555  0.57080673     0.16300
F1238       F  0.08814974  0.91344373  0.51220543    -0.23100
H1239       H  0.10732171  0.88876425  0.53748850     0.18100
C1240       C  0.09684843  0.87072574  0.59350861     0.26100
C1241       C  0.10911235  0.85798837  0.60601441    -0.11600
C1242       C  0.13106561  0.85731862  0.60397420    -0.25600
C1243       C  0.14015039  0.87119938  0.58960906     0.37000
C1244       C  0.12782735  0.88401328  0.57725092    -0.27300
F1245       F  0.07582875  0.86994355  0.59548846    -0.19400
H1246       H  0.10103687  0.84909118  0.61752444     0.16300
F1247       F  0.16112485  0.87216334  0.58727539    -0.23100
H1248       H  0.13535213  0.89432355  0.56643580     0.18100
C1249       C  0.11204926  0.89201204  0.36487830    -0.27100
C1250       C  0.11276803  0.89051665  0.38632768     0.06500
C1251       C  0.12556201  0.87530743  0.39520470     0.26100
C1252       C  0.13751662  0.86210043  0.38292183    -0.11600
C1253       C  0.13637978  0.86281452  0.36124158    -0.25600
C1254       C  0.12366955  0.87854185  0.35249907     0.36900
C1255       C  0.09987200  0.90456352  0.39930002     0.06500
F1256       F  0.12611793  0.87272143  0.41586321    -0.19400
H1257       H  0.14759990  0.85139707  0.39083858     0.16300
F1258       F  0.12182648  0.88041426  0.33184550    -0.23100
H1259       H  0.10240288  0.90368267  0.35762787     0.18100
C1260       C  0.10839077  0.91476818  0.41643730     0.26100
C1261       C  0.09587527  0.92733604  0.42887536    -0.11600
C1262       C  0.07477705  0.93052615  0.42419802    -0.25600
C1263       C  0.06635121  0.92073149  0.40678677     0.37000
C1264       C  0.07877703  0.90781091  0.39458023    -0.27300
F1265       F  0.12899006  0.91321935  0.42077590    -0.19400
H1266       H  0.10289606  0.93504621  0.44189730     0.16300
F1267       F  0.04609726  0.92351714  0.40156202    -0.23100
H1268       H  0.07183578  0.90016881  0.38147526     0.18100
C1269       C  0.95421615  0.90520753  0.39600031    -0.27100
C1270       C  0.93463186  0.89837108  0.40293691     0.06500
C1271       C  0.92797225  0.90468568  0.42261628     0.26100
C1272       C  0.93968994  0.91886256  0.43408269    -0.11600
C1273       C  0.95865850  0.92661417  0.42659631    -0.25600
C1274       C  0.96622380  0.91893474  0.40774170     0.36900
C1275       C  0.92121784  0.88516153  0.38940045     0.06500
F1276       F  0.91024826  0.89698563  0.43097503    -0.19400
H1277       H  0.93374368  0.92394445  0.44880995     0.16300
F1278       F  0.98502485  0.92497012  0.40036270    -0.23100
H1279       H  0.96004415  0.90037945  0.38114601     0.18100
C1280       C  0.89969058  0.88877889  0.38761692     0.26100
C1281       C  0.88746423  0.87656457  0.37464504    -0.11600
C1282       C  0.89628560  0.86143032  0.36151304    -0.25600
C1283       C  0.91785863  0.85718070  0.36418246     0.37000
C1284       C  0.92997195  0.86903261  0.37771580    -0.27300
F1285       F  0.89044862  0.90481054  0.39760469    -0.19400
H1286       H  0.87091770  0.87973629  0.37401708     0.16300
F1287       F  0.92739331  0.84092902  0.35489501    -0.23100
H1288       H  0.94633890  0.86531999  0.37927976     0.18100
C1289       C  0.91799067  0.09140343  0.36807154    -0.27100
C1290       C  0.91837191  0.09515946  0.38925185     0.06500
C1291       C  0.90576608  0.11105265  0.39721144     0.26100
C1292       C  0.89246917  0.12232645  0.38434824    -0.11600
C1293       C  0.89076499  0.11771853  0.36314234    -0.25600
C1294       C  0.90462797  0.10254276  0.35517899     0.36900
C1295       C  0.93172312  0.08218461  0.40283376     0.06500
F1296       F  0.90666080  0.11607639  0.41741937    -0.19400
H1297       H  0.88397827  0.13497948  0.39126290     0.16300
F1298       F  0.90478976  0.09795384  0.33485423    -0.23100
H1299       H  0.92778148  0.07941896  0.36150182     0.18100
C1300       C  0.92322765  0.07188260  0.41992300     0.26100
C1301       C  0.93551044  0.05838053  0.43161809    -0.11600
C1302       C  0.95648555  0.05473380  0.42651549    -0.25600
C1303       C  0.96517502  0.06559774  0.40984369     0.37000
C1304       C  0.95285727  0.07907942  0.39810564    -0.27300
F1305       F  0.90276936  0.07403876  0.42472250    -0.19400
H1306       H  0.92835291  0.05024225  0.44432252     0.16300
F1307       F  0.98552467  0.06314507  0.40477731    -0.23100
H1308       H  0.95979752  0.08701055  0.38515343     0.18100
C1309       C  0.21732548  0.78562823  0.39911059    -0.27100
C1310       C  0.19663205  0.79215197  0.40248793     0.06500
C1311       C  0.18697002  0.78617341  0.42109741     0.26100
C1312       C  0.19740095  0.77354467  0.43521620    -0.11600
C1313       C  0.21815200  0.76752814  0.43196124    -0.25600
C1314       C  0.22817794  0.77418979  0.41392296     0.36900
C1315       C  0.18532071  0.80524275  0.38692184     0.06500
F1316       F  0.16766685  0.79304227  0.42618583    -0.19400
H1317       H  0.18934887  0.76881434  0.44905303     0.16300
F1318       F  0.24858539  0.76977486  0.41066087    -0.23100
H1319       H  0.22529787  0.78922724  0.38494786     0.18100
C1320       C  0.19565600  0.82009219  0.37471619     0.26100
C1321       C  0.18460289  0.83250462  0.36083228    -0.11600
C1322       C  0.16258841  0.83237816  0.36013401    -0.25600
C1323       C  0.15247400  0.81678793  0.37181605     0.37000
C1324       C  0.16371534  0.80316986  0.38429463    -0.27300
F1325       F  0.21639446  0.82346768  0.37662624    -0.19400
H1326       H  0.19375758  0.84246377  0.35113790     0.16300
F1327       F  0.13143887  0.81504431  0.37177996    -0.23100
H1328       H  0.15518993  0.79115993  0.39223312     0.18100
C1329       C  0.18563372  0.77370539  0.55167283    -0.27100
C1330       C  0.19531995  0.78615636  0.56653887     0.06500
C1331       C  0.21721641  0.78617035  0.56777104     0.26100
C1332       C  0.22906290  0.77464208  0.55372164    -0.11600
C1333       C  0.21923891  0.76307211  0.53828432    -0.25600
C1334       C  0.19743967  0.76242850  0.53756523     0.36900
C1335       C  0.18243383  0.80007415  0.57957090     0.06500
F1336       F  0.22715270  0.79812582  0.58180822    -0.19400
H1337       H  0.24589209  0.77526613  0.55442468     0.16300
F1338       F  0.18760021  0.75117275  0.52291017    -0.23100
H1339       H  0.16882125  0.77308372  0.55069223     0.18100
C1340       C  0.16720563  0.81275680  0.57058372     0.26100
C1341       C  0.15510944  0.82599737  0.58259930    -0.11600
C1342       C  0.15831096  0.82784871  0.60400194    -0.25600
C1343       C  0.17283834  0.81397587  0.61304311     0.37000
C1344       C  0.18494980  0.80063215  0.60092386    -0.27300
F1345       F  0.16420941  0.81270047  0.54996443    -0.19400
H1346       H  0.14312098  0.83456606  0.57471157     0.16300
F1347       F  0.17585557  0.81380879  0.63365108    -0.23100
H1348       H  0.19620911  0.79057570  0.60827462     0.18100
C1349       C  0.84544117  0.17832612  0.36862250    -0.27100
C1350       C  0.83460138  0.16990862  0.38533238     0.06500
C1351       C  0.83542361  0.14836131  0.38840193     0.26100
C1352       C  0.84775431  0.13583419  0.37573096    -0.11600
C1353       C  0.86056684  0.14436828  0.36021950    -0.25600
C1354       C  0.85791992  0.16584985  0.35597181     0.36900
C1355       C  0.82276270  0.18360386  0.39966023     0.06500
F1356       F  0.82513526  0.13945161  0.40431281    -0.19400
H1357       H  0.84826935  0.11934697  0.37883898     0.16300
F1358       F  0.86645597  0.17500646  0.33925476    -0.23100
H1359       H  0.84411793  0.19471411  0.36522491     0.18100
C1360       C  0.83200719  0.20145840  0.40816037     0.26100
C1361       C  0.82132270  0.21333351  0.42280015    -0.11600
C1362       C  0.80139809  0.20750335  0.42944981    -0.25600
C1363       C  0.79177980  0.19025218  0.42033742     0.37000
C1364       C  0.80236029  0.17846949  0.40558144    -0.27300
F1365       F  0.85169505  0.20696964  0.40296656    -0.19400
H1366       H  0.82879779  0.22682606  0.42936613     0.16300
F1367       F  0.77217599  0.18474005  0.42585337    -0.23100
H1368       H  0.79465450  0.16517819  0.39888418     0.18100
C1369       C  0.82379786  0.19909669  0.56752969    -0.27100
C1370       C  0.82923480  0.17843494  0.56275454     0.06500
C1371       C  0.82174923  0.17002441  0.54416825     0.26100
C1372       C  0.80886816  0.18170776  0.53127800    -0.11600
C1373       C  0.80395295  0.20245286  0.53580787    -0.25600
C1374       C  0.81179471  0.21112367  0.55404257     0.36900
C1375       C  0.84231422  0.16580050  0.57725889     0.06500
F1376       F  0.82741873  0.15075846  0.53790726    -0.19400
H1377       H  0.80315724  0.17467554  0.51728533     0.16300
F1378       F  0.80809715  0.23131167  0.55871921    -0.23100
H1379       H  0.82876631  0.20606163  0.58180331     0.18100
C1380       C  0.85869449  0.17476096  0.58853485     0.26100
C1381       C  0.86977349  0.16313082  0.60304953    -0.11600
C1382       C  0.86533170  0.14194173  0.60666561    -0.25600
C1383       C  0.85045870  0.13260103  0.59358503     0.37000
C1384       C  0.83854241  0.14449903  0.57998858    -0.27300
F1385       F  0.86465104  0.19463451  0.58508340    -0.19400
H1386       H  0.88239667  0.17085968  0.61082531     0.16300
F1387       F  0.84694924  0.11186978  0.59432051    -0.23100
H1388       H  0.82614757  0.13685227  0.57174480     0.18100
C1389       C  0.82748188  0.90509667  0.27615872    -0.27100
C1390       C  0.82875171  0.90586417  0.29765296     0.06500
C1391       C  0.81670497  0.92056062  0.30834781     0.26100
C1392       C  0.80392838  0.93444753  0.29766243    -0.11600
C1393       C  0.80312606  0.93415193  0.27611398    -0.25600
C1394       C  0.81494999  0.91922695  0.26543143     0.36900
C1395       C  0.84297702  0.89167721  0.30886793     0.06500
F1396       F  0.81728137  0.92143415  0.32914894    -0.19400
H1397       H  0.79489637  0.94575246  0.30618213     0.16300
F1398       F  0.81481251  0.91871201  0.24461510    -0.23100
H1399       H  0.83667511  0.89390691  0.26766300     0.18100
C1400       C  0.85948754  0.89957877  0.32050213     0.26100
C1401       C  0.87241294  0.88625128  0.33168093    -0.11600
C1402       C  0.86862083  0.86462545  0.33255488    -0.25600
C1403       C  0.85283890  0.85679172  0.31944314     0.37000
C1404       C  0.84019151  0.87016949  0.30793380    -0.27300
F1405       F  0.86333486  0.92026817  0.32080519    -0.19400
H1406       H  0.88546058  0.89320591  0.33946236     0.16300
F1407       F  0.84899018  0.83614023  0.31842588    -0.23100
H1408       H  0.82781392  0.86373463  0.29865336     0.18100
C1409       C  0.83419588  0.10777999  0.31059164    -0.27100
C1410       C  0.83368659  0.08661509  0.31551022     0.06500
C1411       C  0.84599715  0.07948414  0.33181768     0.26100
C1412       C  0.85904596  0.09308013  0.34245568    -0.11600
C1413       C  0.86085200  0.11423135  0.33682631    -0.25600
C1414       C  0.84714136  0.12148746  0.32134926     0.36900
C1415       C  0.82093637  0.07190384  0.30320553     0.06500
F1416       F  0.84592241  0.05913778  0.33714852    -0.19400
H1417       H  0.86753327  0.08670846  0.35527063     0.16300
F1418       F  0.84662477  0.14186219  0.31620078    -0.23100
H1419       H  0.82447852  0.11373597  0.29836396     0.18100
C1420       C  0.80693050  0.05810791  0.31269187     0.26100
C1421       C  0.79622816  0.04335295  0.30102268    -0.11600
C1422       C  0.79916108  0.04215901  0.27973114    -0.25600
C1423       C  0.81276345  0.05617805  0.27013092     0.37000
C1424       C  0.82347714  0.07096238  0.28178823    -0.27300
F1425       F  0.80344657  0.05900799  0.33321525    -0.19400
H1426       H  0.78563033  0.03277792  0.30859163     0.16300
F1427       F  0.81597543  0.05524934  0.24956215    -0.23100
H1428       H  0.83421884  0.08134498  0.27415883     0.18100
C1429       C  0.10100390  0.79161227  0.27429888    -0.27100
C1430       C  0.09907948  0.79210158  0.29577993     0.06500
C1431       C  0.08351565  0.78006555  0.30521417     0.26100
C1432       C  0.06965533  0.76855327  0.29336948    -0.11600
C1433       C  0.07089912  0.76882682  0.27189955    -0.25600
C1434       C  0.08698139  0.78012887  0.26239584     0.36900
C1435       C  0.11192890  0.80645258  0.30827344     0.06500
F1436       F  0.08149219  0.77969367  0.32594584    -0.19400
H1437       H  0.05753718  0.75974740  0.30094891     0.16300
F1438       F  0.08863551  0.78066575  0.24163703    -0.23100
H1439       H  0.11278020  0.80084106  0.26670181     0.18100
C1440       C  0.13372499  0.80681082  0.30692808     0.26100
C1441       C  0.14524173  0.82020216  0.31946940    -0.11600
C1442       C  0.13541112  0.83409628  0.33331407    -0.25600
C1443       C  0.11335639  0.83287510  0.33492378     0.37000
C1444       C  0.10202986  0.81968249  0.32224059    -0.27300
F1445       F  0.14393112  0.79383573  0.29394037    -0.19400
H1446       H  0.16205716  0.81995494  0.31825695     0.16300
F1447       F  0.10234381  0.84293850  0.34961208    -0.23100
H1448       H  0.08523034  0.81950753  0.32369535     0.18100
C1449       C  0.94171638  0.77823361  0.30321208    -0.27100
C1450       C  0.93275415  0.79559272  0.29350031     0.06500
C1451       C  0.93863536  0.80007012  0.27314315     0.26100
C1452       C  0.95323156  0.78758070  0.26292020    -0.11600
C1453       C  0.96235114  0.77049636  0.27277696    -0.25600
C1454       C  0.95641945  0.76583739  0.29300558     0.36900
C1455       C  0.91807803  0.80934224  0.30502991     0.06500
F1456       F  0.93012413  0.81640175  0.26304299    -0.19400
H1457       H  0.95763105  0.79135329  0.24731575     0.16300
F1458       F  0.96506152  0.74946990  0.30294914    -0.23100
H1459       H  0.93771124  0.77456714  0.31894340     0.18100
C1460       C  0.90145695  0.80104493  0.31636548     0.26100
C1461       C  0.88912847  0.81383733  0.32881025    -0.11600
C1462       C  0.89343795  0.83526495  0.33105280    -0.25600
C1463       C  0.90866505  0.84375567  0.31776319     0.37000
C1464       C  0.92103758  0.83091519  0.30534611    -0.27300
F1465       F  0.89698519  0.78050747  0.31532176    -0.19400
H1466       H  0.87621186  0.80663009  0.33663234     0.16300
F1467       F  0.91256302  0.86442487  0.31779265    -0.23100
H1468       H  0.93350379  0.83783749  0.29651901     0.18100
C1469       C  0.69602027  0.09860424  0.15253390    -0.27100
C1470       C  0.68723584  0.08272480  0.16438783     0.06500
C1471       C  0.66563508  0.07959063  0.16339525     0.26100
C1472       C  0.65328452  0.09212027  0.15092959    -0.11600
C1473       C  0.66202689  0.10722144  0.13775153    -0.25600
C1474       C  0.68379537  0.11074448  0.13945208     0.36900
C1475       C  0.70052462  0.06973948  0.17798565     0.06500
F1476       F  0.65640161  0.06401214  0.17402335    -0.19400
H1477       H  0.63664210  0.08945832  0.15091154     0.16300
F1478       F  0.69342673  0.12674814  0.12993162    -0.23100
H1479       H  0.71245672  0.10204798  0.15377247     0.18100
C1480       C  0.71974366  0.06174807  0.17107396     0.26100
C1481       C  0.73130448  0.04840986  0.18353894    -0.11600
C1482       C  0.72382226  0.04254143  0.20289393    -0.25600
C1483       C  0.70517714  0.05114264  0.21023272     0.37000
C1484       C  0.69376532  0.06478311  0.19794693    -0.27300
F1485       F  0.72693000  0.06596684  0.15193679    -0.19400
H1486       H  0.74573252  0.04191196  0.17776565     0.16300
F1487       F  0.69783506  0.04601782  0.22909378    -0.23100
H1488       H  0.67945710  0.07127820  0.20397686     0.18100
C1489       C  0.70823726  0.90405387  0.77755190    -0.27100
C1490       C  0.70216227  0.90966578  0.79758515     0.06500
C1491       C  0.70858649  0.92906020  0.80524802     0.26100
C1492       C  0.72077223  0.94223120  0.79323488    -0.11600
C1493       C  0.72594563  0.93707324  0.77289479    -0.25600
C1494       C  0.71942213  0.91778851  0.76511755     0.36900
C1495       C  0.68875353  0.89556524  0.81008338     0.06500
F1496       F  0.70235357  0.93585377  0.82398749    -0.19400
H1497       H  0.72562223  0.95694123  0.79965206     0.16300
F1498       F  0.72333116  0.91239748  0.74534766    -0.23100
H1499       H  0.70405020  0.88908725  0.77130052     0.18100
C1500       C  0.67230234  0.88448651  0.80104373     0.26100
C1501       C  0.66010922  0.87102175  0.81274038    -0.11600
C1502       C  0.66383390  0.86798977  0.83391418    -0.25600
C1503       C  0.67899481  0.88082740  0.84320239     0.37000
C1504       C  0.69182599  0.89356192  0.83133499    -0.27300
F1505       F  0.66734550  0.88721251  0.78098747    -0.19400
H1506       H  0.64727228  0.86360170  0.80502162     0.16300
F1507       F  0.68207915  0.88037328  0.86379466    -0.23100
H1508       H  0.70430130  0.90177032  0.83892308     0.18100
C1509       C  0.69499819  0.82191774  0.87338874    -0.27100
C1510       C  0.68381180  0.80910725  0.88693125     0.06500
C1511       C  0.66192906  0.80940164  0.88571214     0.26100
C1512       C  0.65181326  0.82351047  0.87291613    -0.11600
C1513       C  0.66294752  0.83729266  0.86008858    -0.25600
C1514       C  0.68485234  0.83474483  0.85929946     0.36900
C1515       C  0.69493795  0.79592785  0.90237952     0.06500
F1516       F  0.65009616  0.79598436  0.89669923    -0.19400
H1517       H  0.63497755  0.82394617  0.87332554     0.16300
F1518       F  0.69679794  0.84374213  0.84467644    -0.23100
H1519       H  0.71180662  0.82224600  0.87356369     0.18100
C1520       C  0.71473414  0.78728345  0.89828059     0.26100
C1521       C  0.72561138  0.77669114  0.91359720    -0.11600
C1522       C  0.71645370  0.77279395  0.93280356    -0.25600
C1523       C  0.69620194  0.78023405  0.93649139     0.37000
C1524       C  0.68604284  0.79237582  0.92184647    -0.27300
F1525       F  0.72355372  0.78853897  0.87939633    -0.19400
H1526       H  0.74122079  0.77126227  0.91029329     0.16300
F1527       F  0.68629346  0.77601054  0.95441922    -0.23100
H1528       H  0.67124008  0.79917183  0.92603222     0.18100
C1529       C  0.63129131  0.81338262  0.80698619    -0.27100
C1530       C  0.60985914  0.81266332  0.81078507     0.06500
C1531       C  0.60145970  0.82446175  0.82681181     0.26100
C1532       C  0.61415981  0.83748133  0.83831883    -0.11600
C1533       C  0.63570294  0.83935342  0.83405734    -0.25600
C1534       C  0.64417904  0.82609118  0.81880929     0.36900
C1535       C  0.59609631  0.79977915  0.79800137     0.06500
F1536       F  0.58081625  0.82357810  0.83121805    -0.19400
H1537       H  0.60689060  0.84552789  0.85097632     0.16300
F1538       F  0.66497614  0.82566829  0.81513413    -0.23100
H1539       H  0.63806917  0.80389834  0.79498044     0.18100
C1540       C  0.59402874  0.80380432  0.77691830     0.26100
C1541       C  0.57942801  0.79288495  0.76531690    -0.11600
C1542       C  0.56680656  0.77786823  0.77463623    -0.25600
C1543       C  0.56923703  0.77346731  0.79557240     0.37000
C1544       C  0.58379295  0.78439042  0.80717300    -0.27300
F1545       F  0.60542819  0.81893567  0.76781899    -0.19400
H1546       H  0.57761341  0.79640823  0.74916915     0.16300
F1547       F  0.55729150  0.75883012  0.80477451    -0.23100
H1548       H  0.58526307  0.78110566  0.82340595     0.18100
C1549       C  0.41272575  0.81422121  0.82873382    -0.27100
C1550       C  0.41057965  0.81252121  0.80743571     0.06500
C1551       C  0.39363810  0.82241851  0.79793066     0.26100
C1552       C  0.38020200  0.83515417  0.80933586    -0.11600
C1553       C  0.38366549  0.83886214  0.83045440    -0.25600
C1554       C  0.39932626  0.82680418  0.84015185     0.36900
C1555       C  0.42637838  0.80077302  0.79540983     0.06500
F1556       F  0.38996320  0.81963911  0.77761312    -0.19400
H1557       H  0.36722285  0.84211813  0.80137968     0.16300
F1558       F  0.40268499  0.82821379  0.86063498    -0.23100
H1559       H  0.42533818  0.80634102  0.83653772     0.18100
C1560       C  0.43618013  0.80975533  0.77823006     0.26100
C1561       C  0.45181540  0.79898749  0.76769492    -0.11600
C1562       C  0.45810890  0.77923948  0.77420937    -0.25600
C1563       C  0.44837249  0.77019023  0.79129496     0.37000
C1564       C  0.43268402  0.78090812  0.80181585    -0.27300
F1565       F  0.43117836  0.82922532  0.77204823    -0.19400
H1566       H  0.45919780  0.80611345  0.75452127     0.16300
F1567       F  0.45397732  0.75094129  0.79766750    -0.23100
H1568       H  0.42539576  0.77367306  0.81497961     0.18100
C1569       C  0.69021122  0.81649941  0.10309097    -0.27100
C1570       C  0.68885019  0.81919217  0.08178232     0.06500
C1571       C  0.67572780  0.83472944  0.07409795     0.26100
C1572       C  0.66365479  0.84678067  0.08735761    -0.11600
C1573       C  0.66325949  0.84299991  0.10875841    -0.25600
C1574       C  0.67777188  0.82830201  0.11644080     0.36900
C1575       C  0.70053928  0.80553210  0.06743011     0.06500
F1576       F  0.67469192  0.83842449  0.05361825    -0.19400
H1577       H  0.65468570  0.85908278  0.08045076     0.16300
F1578       F  0.67930792  0.82468830  0.13689339    -0.23100
H1579       H  0.70046472  0.80478067  0.10939411     0.18100
C1580       C  0.72227523  0.80316911  0.06876229     0.26100
C1581       C  0.73295859  0.79081175  0.05447531    -0.11600
C1582       C  0.72213032  0.78045938  0.03879270    -0.25600
C1583       C  0.70039941  0.78276245  0.03758970     0.37000
C1584       C  0.68977663  0.79513639  0.05176959    -0.27300
F1585       F  0.73322611  0.81331987  0.08343442    -0.19400
H1586       H  0.74972605  0.78943109  0.05551861     0.16300
F1587       F  0.68943242  0.77298080  0.02267538    -0.23100
H1588       H  0.67302644  0.79660700  0.05054169     0.18100
C1589       C  0.67897295  0.87718439  0.17089894    -0.27100
C1590       C  0.69063539  0.89302174  0.16178683     0.06500
C1591       C  0.68998438  0.89523230  0.14037327     0.26100
C1592       C  0.67677432  0.88273538  0.12860013    -0.11600
C1593       C  0.66355963  0.86781217  0.13774898    -0.25600
C1594       C  0.66607531  0.86437710  0.15917746     0.36900
C1595       C  0.70307415  0.90727972  0.17484758     0.06500
F1596       F  0.70153541  0.90998396  0.13086675    -0.19400
H1597       H  0.67633497  0.88515614  0.11216340     0.16300
F1598       F  0.65714222  0.84817542  0.16903853    -0.23100
H1599       H  0.68010438  0.87450325  0.18727022     0.18100
C1600       C  0.69363441  0.91776799  0.19139238     0.26100
C1601       C  0.70520328  0.93134972  0.20358120    -0.11600
C1602       C  0.72635287  0.93473494  0.19954208    -0.25600
C1603       C  0.73588810  0.92431470  0.18307390     0.37000
C1604       C  0.72431881  0.91065632  0.17085339    -0.27300
F1605       F  0.67301512  0.91545627  0.19530980    -0.19400
H1606       H  0.69757346  0.93959542  0.21598089     0.16300
F1607       F  0.75620264  0.92779622  0.17852967    -0.23100
H1608       H  0.73192805  0.90272596  0.15824863     0.18100
C1609       C  0.60302693  0.05089012  0.06009585    -0.27100
C1610       C  0.59416416  0.06624643  0.07265337     0.06500
C1611       C  0.57241406  0.06911521  0.07225141     0.26100
C1612       C  0.56004202  0.05746621  0.05884701    -0.11600
C1613       C  0.56905169  0.04245380  0.04598687    -0.25600
C1614       C  0.59066293  0.03892661  0.04712316     0.36900
C1615       C  0.60782074  0.07966777  0.08538734     0.06500
F1616       F  0.56311515  0.08313143  0.08483604    -0.19400
H1617       H  0.54341805  0.06025106  0.05844840     0.16300
F1618       F  0.60012400  0.02463316  0.03496578    -0.23100
H1619       H  0.61971666  0.04855347  0.05978166     0.18100
C1620       C  0.62434046  0.07122229  0.09674223     0.26100
C1621       C  0.63739577  0.08405071  0.10815965    -0.11600
C1622       C  0.63367749  0.10564907  0.10983339    -0.25600
C1623       C  0.61796266  0.11410409  0.09707250     0.37000
C1624       C  0.60514230  0.10126288  0.08530171    -0.27300
F1625       F  0.62777584  0.05044489  0.09713733    -0.19400
H1626       H  0.65046710  0.07665122  0.11552356     0.16300
F1627       F  0.61447463  0.13485558  0.09653753    -0.23100
H1628       H  0.59314884  0.10829186  0.07593093     0.18100
C1629       C  0.43057712  0.04986797  0.07488671    -0.27100
C1630       C  0.42477065  0.07013415  0.06923403     0.06500
C1631       C  0.43101004  0.07779271  0.04993745     0.26100
C1632       C  0.44351445  0.06577667  0.03709964    -0.11600
C1633       C  0.44932210  0.04570160  0.04287458    -0.25600
C1634       C  0.44245729  0.03756943  0.06161515     0.36900
C1635       C  0.41287653  0.08346761  0.08365768     0.06500
F1636       F  0.42470686  0.09672868  0.04327610    -0.19400
H1637       H  0.44832953  0.07198991  0.02239752     0.16300
F1638       F  0.44782774  0.01804126  0.06732171    -0.23100
H1639       H  0.42623662  0.04366962  0.08971947     0.18100
C1640       C  0.39577038  0.07579645  0.09470800     0.26100
C1641       C  0.38505280  0.08858244  0.10846638    -0.11600
C1642       C  0.39112434  0.10941754  0.11175600    -0.25600
C1643       C  0.40736558  0.11726447  0.09927154     0.37000
C1644       C  0.41851881  0.10427879  0.08618555    -0.27300
F1645       F  0.38886997  0.05615504  0.09167104    -0.19400
H1646       H  0.37155239  0.08211409  0.11599370     0.16300
F1647       F  0.41300790  0.13748951  0.10007505    -0.23100
H1648       H  0.43168507  0.11064403  0.07795270     0.18100
C1649       C  0.44495189  0.90136477  0.06816420    -0.27100
C1650       C  0.42498114  0.90880025  0.07299274     0.06500
C1651       C  0.41855935  0.92803530  0.06521005     0.26100
C1652       C  0.43159664  0.93923094  0.05210250    -0.11600
C1653       C  0.45118158  0.93134688  0.04628502    -0.25600
C1654       C  0.45798878  0.91247760  0.05488450     0.36900
C1655       C  0.41062319  0.89593091  0.08533704     0.06500
F1656       F  0.39954618  0.93583926  0.07006763    -0.19400
H1657       H  0.42601423  0.95381767  0.04597456     0.16300
F1658       F  0.47694010  0.90447291  0.05010621    -0.23100
H1659       H  0.45016780  0.88658838  0.07417991     0.18100
C1660       C  0.39277010  0.88730735  0.07643475     0.26100
C1661       C  0.38037467  0.87348718  0.08756776    -0.11600
C1662       C  0.38561563  0.86764120  0.10785675    -0.25600
C1663       C  0.40226218  0.87845755  0.11731679     0.37000
C1664       C  0.41497569  0.89179781  0.10594869    -0.27300
F1665       F  0.38760607  0.89183962  0.05674656    -0.19400
H1666       H  0.36663303  0.86751970  0.08010238     0.16300
F1667       F  0.40710180  0.87511986  0.13729385    -0.23100
H1668       H  0.42835290  0.89884912  0.11322615     0.18100
C1669       C  0.59414256  0.92822354  0.89393810    -0.27100
C1670       C  0.59576750  0.90667063  0.89643966     0.06500
C1671       C  0.58338102  0.89670652  0.91122291     0.26100
C1672       C  0.56965341  0.90818043  0.92334942    -0.11600
C1673       C  0.56848472  0.92978613  0.92130096    -0.25600
C1674       C  0.58077065  0.93978483  0.90646081     0.36900
C1675       C  0.61074522  0.89459487  0.88406821     0.06500
F1676       F  0.58465517  0.87588131  0.91399233    -0.19400
H1677       H  0.56049723  0.90025054  0.93489034     0.16300
F1678       F  0.57985687  0.96067960  0.90411356    -0.23100
H1679       H  0.60365427  0.93613214  0.88266919     0.18100
C1680       C  0.60995349  0.89479919  0.86260797     0.26100
C1681       C  0.62327808  0.88206101  0.85127574    -0.11600
C1682       C  0.63742855  0.86836337  0.86099840    -0.25600
C1683       C  0.63941630  0.86997575  0.88265083     0.37000
C1684       C  0.62588683  0.88257687  0.89389334    -0.27300
F1685       F  0.59570332  0.90662874  0.85262618    -0.19400
H1686       H  0.62186995  0.88211393  0.83472067     0.16300
F1687       F  0.65477327  0.86032171  0.89322855    -0.23100
H1688       H  0.62734803  0.88310587  0.91044639     0.18100
C1689       C  0.44857302  0.07129242  0.89364936    -0.27100
C1690       C  0.42679560  0.06886321  0.89333878     0.06500
C1691       C  0.41764142  0.05451016  0.90685705     0.26100
C1692       C  0.42994245  0.04286267  0.92019988    -0.11600
C1693       C  0.45159648  0.04552497  0.92082802    -0.25600
C1694       C  0.46089932  0.05983471  0.90735837     0.36900
C1695       C  0.41356928  0.08120313  0.87907647     0.06500
F1696       F  0.39666291  0.05225445  0.90777537    -0.19400
H1697       H  0.42235472  0.03215122  0.93057626     0.16300
F1698       F  0.48185121  0.06248780  0.90717829    -0.23100
H1699       H  0.45605870  0.08198695  0.88318703     0.18100
C1700       C  0.41590837  0.10275885  0.87725482     0.26100
C1701       C  0.40276867  0.11412746  0.86438355    -0.11600
C1702       C  0.38704957  0.10446028  0.85256884    -0.25600
C1703       C  0.38403387  0.08287660  0.85559866     0.37000
C1704       C  0.39756219  0.07150598  0.86806165    -0.27300
F1705       F  0.43044173  0.11300609  0.88841470    -0.19400
H1706       H  0.40500295  0.13073730  0.86340743     0.16300
F1707       F  0.36740583  0.07262542  0.84787645    -0.23100
H1708       H  0.39515576  0.05495386  0.86945707     0.18100
C1709       C  0.44420666  0.90156887  0.89721370    -0.27100
C1710       C  0.42599766  0.91080224  0.88940631     0.06500
C1711       C  0.42088802  0.93103380  0.89581783     0.26100
C1712       C  0.43326254  0.94133052  0.91025230    -0.11600
C1713       C  0.45109178  0.93182960  0.91855582    -0.25600
C1714       C  0.45668315  0.91193219  0.91152756     0.36900
C1715       C  0.41185181  0.89866013  0.87579843     0.06500
F1716       F  0.40391639  0.94090147  0.88815856    -0.19400
H1717       H  0.42867097  0.95672375  0.91514935     0.16300
F1718       F  0.47379026  0.90212087  0.91894476    -0.23100
H1719       H  0.44842900  0.88592671  0.89279746     0.18100
C1720       C  0.41976382  0.88640491  0.85974933     0.26100
C1721       C  0.40673373  0.87291170  0.84897802    -0.11600
C1722       C  0.38536589  0.87087822  0.85402956    -0.25600
C1723       C  0.37716012  0.88519561  0.86841781     0.37000
C1724       C  0.39030690  0.89835029  0.87951744    -0.27300
F1725       F  0.44014040  0.88753723  0.85432227    -0.19400
H1726       H  0.41367325  0.86422776  0.83654840     0.16300
F1727       F  0.35652126  0.88545214  0.87285085    -0.23100
H1728       H  0.38362879  0.90774890  0.89162376     0.18100
C1729       C  0.60518272  0.87244197  0.08598595    -0.27100
C1730       C  0.60476033  0.89402593  0.08824651     0.06500
C1731       C  0.61741850  0.90312043  0.10333796     0.26100
C1732       C  0.63128027  0.89098837  0.11481375    -0.11600
C1733       C  0.63306111  0.86935320  0.11152880    -0.25600
C1734       C  0.61876723  0.86025438  0.09757697     0.36900
C1735       C  0.59169649  0.90681200  0.07421965     0.06500
F1736       F  0.61611080  0.92374676  0.10730048    -0.19400
H1737       H  0.64016506  0.89877267  0.12654053     0.16300
F1738       F  0.61849586  0.83944508  0.09448206    -0.23100
H1739       H  0.59534259  0.86496003  0.07473157     0.18100
C1740       C  0.60031937  0.92374848  0.06361890     0.26100
C1741       C  0.58843334  0.93482641  0.04936487    -0.11600
C1742       C  0.56781075  0.92909581  0.04500918    -0.25600
C1743       C  0.55912411  0.91216313  0.05563482     0.37000
C1744       C  0.57096062  0.90122730  0.07011787    -0.27300
F1745       F  0.62060405  0.92895129  0.06621296    -0.19400
H1746       H  0.59565259  0.94758548  0.04125938     0.16300
F1747       F  0.53927146  0.90604845  0.05199589    -0.23100
H1748       H  0.56397022  0.88820850  0.07802023     0.18100
C1749       C  0.68916073  0.10633232  0.80643842    -0.27100
C1750       C  0.68972430  0.08476689  0.80925266     0.06500
C1751       C  0.67676548  0.07598137  0.82429513     0.26100
C1752       C  0.66374735  0.08845127  0.83627437    -0.11600
C1753       C  0.66234035  0.11010899  0.83308214    -0.25600
C1754       C  0.67573813  0.11882632  0.81808877     0.36900
C1755       C  0.70379778  0.07140324  0.79668517     0.06500
F1756       F  0.67638001  0.05515568  0.82729525    -0.19400
H1757       H  0.65522372  0.08080469  0.84835099     0.16300
F1758       F  0.67583137  0.13958480  0.81466871    -0.23100
H1759       H  0.69930262  0.11361220  0.79529789     0.18100
C1760       C  0.70497317  0.07354819  0.77517756     0.26100
C1761       C  0.71683609  0.05961091  0.76349270    -0.11600
C1762       C  0.72766924  0.04335519  0.77300855    -0.25600
C1763       C  0.72728902  0.04172051  0.79446930     0.37000
C1764       C  0.71557669  0.05568484  0.80616544    -0.27300
F1765       F  0.69393497  0.08848394  0.76533836    -0.19400
H1766       H  0.71709246  0.06110444  0.74694072     0.16300
F1767       F  0.73813978  0.02647497  0.80406430    -0.23100
H1768       H  0.71552471  0.05405319  0.82270024     0.18100
C1769       C  0.61704802  0.10405721  0.89386775    -0.27100
C1770       C  0.60553537  0.08800340  0.88499351     0.06500
C1771       C  0.60659700  0.08497360  0.86377257     0.26100
C1772       C  0.61971040  0.09723785  0.85176831    -0.11600
C1773       C  0.63304777  0.11222015  0.86062309    -0.25600
C1774       C  0.63047066  0.11621958  0.88197545     0.36900
C1775       C  0.59237764  0.07449870  0.89793118     0.06500
F1776       F  0.59480720  0.07019503  0.85462680    -0.19400
H1777       H  0.62005599  0.09445244  0.83539371     0.16300
F1778       F  0.63984046  0.13236938  0.89152387    -0.23100
H1779       H  0.61570259  0.10712785  0.91016305     0.18100
C1780       C  0.59686001  0.05325325  0.89981821     0.26100
C1781       C  0.58487942  0.04071463  0.91276369    -0.11600
C1782       C  0.56794648  0.04905788  0.92366383    -0.25600
C1783       C  0.56304924  0.07025365  0.92113316     0.37000
C1784       C  0.57539238  0.08285885  0.90862007    -0.27300
F1785       F  0.61315596  0.04476915  0.88951194    -0.19400
H1786       H  0.58890467  0.02447750  0.91431840     0.16300
F1787       F  0.54662886  0.07898865  0.93104361    -0.23100
H1788       H  0.57164203  0.09917782  0.90717166     0.18100
C1789       C  0.42608804  0.18672621  0.78538548    -0.27100
C1790       C  0.42390032  0.16570926  0.78034415     0.06500
C1791       C  0.43582526  0.15725726  0.76426493     0.26100
C1792       C  0.45029662  0.16959635  0.75391170    -0.11600
C1793       C  0.45298505  0.19041564  0.75952147    -0.25600
C1794       C  0.44059691  0.19900536  0.77512517     0.36900
C1795       C  0.41067487  0.15247332  0.79335795     0.06500
F1796       F  0.43367625  0.13705013  0.75884807    -0.19400
H1797       H  0.45974014  0.16286040  0.74183748     0.16300
F1798       F  0.44315454  0.21904938  0.78093051    -0.23100
H1799       H  0.41715465  0.19338516  0.79787715     0.18100
C1800       C  0.41960150  0.13631725  0.80466674     0.26100
C1801       C  0.40777366  0.12548109  0.81899421    -0.11600
C1802       C  0.38670601  0.13071049  0.82285887    -0.25600
C1803       C  0.37746800  0.14584019  0.80992505     0.37000
C1804       C  0.38949774  0.15695053  0.79583653    -0.27300
F1805       F  0.44003304  0.13141733  0.80235605    -0.19400
H1806       H  0.41536788  0.11273418  0.82669175     0.16300
F1807       F  0.35694127  0.15056470  0.81155982    -0.23100
H1808       H  0.38232184  0.16921546  0.78694879     0.18100
C1809       C  0.60771764  0.16532645  0.82747927    -0.27100
C1810       C  0.60385225  0.15948055  0.80698039     0.06500
C1811       C  0.61375613  0.14123403  0.79985249     0.26100
C1812       C  0.62841840  0.13085427  0.81193941    -0.11600
C1813       C  0.63285159  0.13716583  0.83223145    -0.25600
C1814       C  0.62048898  0.15343316  0.84026715     0.36900
C1815       C  0.58946308  0.17201294  0.79340281     0.06500
F1816       F  0.60871276  0.13251331  0.78159333    -0.19400
H1817       H  0.63538345  0.11703593  0.80550058     0.16300
F1818       F  0.62116941  0.15837664  0.86050385    -0.23100
H1819       H  0.60105202  0.17918597  0.83402010     0.18100
C1820       C  0.57335838  0.18464581  0.80153196     0.26100
C1821       C  0.56074467  0.19651470  0.78858727    -0.11600
C1822       C  0.56178029  0.19430527  0.76718457    -0.25600
C1823       C  0.57714176  0.18119230  0.75893039     0.37000
C1824       C  0.59154905  0.17138786  0.77180256    -0.27300
F1825       F  0.56865068  0.18485074  0.82181077    -0.19400
H1826       H  0.54894482  0.20640805  0.79537507     0.16300
F1827       F  0.57809529  0.17751764  0.73843989    -0.23100
H1828       H  0.60415572  0.16308563  0.76452665     0.18100
C1829       C  0.42057692  0.81669241  0.13498794    -0.27100
C1830       C  0.41216972  0.80479055  0.15090236     0.06500
C1831       C  0.39072107  0.80598635  0.15479146     0.26100
C1832       C  0.37834057  0.82019318  0.14408984    -0.11600
C1833       C  0.38717297  0.83434991  0.12999120    -0.25600
C1834       C  0.40824996  0.83082297  0.12420462     0.36900
C1835       C  0.42608772  0.79218204  0.16406631     0.06500
F1836       F  0.38180271  0.79360401  0.16914348    -0.19400
H1837       H  0.36190795  0.82102575  0.14771350     0.16300
F1838       F  0.41706288  0.84017778  0.10772446    -0.23100
H1839       H  0.43692203  0.81533643  0.13109906     0.18100
C1840       C  0.44036707  0.77801753  0.15552417     0.26100
C1841       C  0.45455861  0.76760448  0.16813484    -0.11600
C1842       C  0.45482566  0.77127880  0.18936091    -0.25600
C1843       C  0.44054869  0.78533805  0.19791600     0.37000
C1844       C  0.42621714  0.79558384  0.18536317    -0.27300
F1845       F  0.44065333  0.77434998  0.13501504    -0.19400
H1846       H  0.46562385  0.75692015  0.16133316     0.16300
F1847       F  0.44106474  0.78974082  0.21827204    -0.23100
H1848       H  0.41568360  0.80678347  0.19217266     0.18100
C1849       C  0.57876521  0.78636621  0.15987248    -0.27100
C1850       C  0.59010510  0.80219984  0.16962514     0.06500
C1851       C  0.58745020  0.80516708  0.19091522     0.26100
C1852       C  0.57372632  0.79264561  0.20202816    -0.11600
C1853       C  0.56252603  0.77691237  0.19220111    -0.25600
C1854       C  0.56525052  0.77370391  0.17107456     0.36900
C1855       C  0.60476272  0.81538822  0.15766094     0.06500
F1856       F  0.59836271  0.81993297  0.20108694    -0.19400
H1857       H  0.57165123  0.79533138  0.21831159     0.16300
F1858       F  0.55467443  0.75842126  0.16130570    -0.23100
H1859       H  0.58014770  0.78393581  0.14349055     0.18100
C1860       C  0.61856463  0.80662680  0.14330741     0.26100
C1861       C  0.63261326  0.81907448  0.13254520    -0.11600
C1862       C  0.63383028  0.84068463  0.13607180    -0.25600
C1863       C  0.61932278  0.84939042  0.15010053     0.37000
C1864       C  0.60510909  0.83692610  0.16062191    -0.27300
F1865       F  0.61876249  0.78588533  0.13979173    -0.19400
H1866       H  0.64207176  0.81147283  0.12110695     0.16300
F1867       F  0.61905545  0.87009289  0.15386711    -0.23100
H1868       H  0.59422211  0.84423113  0.17107865     0.18100
C1869       C  0.18990169  0.90960587  0.68303129    -0.27100
C1870       C  0.19647911  0.90383474  0.66320261     0.06500
C1871       C  0.21458337  0.91318128  0.65510873     0.26100
C1872       C  0.22594227  0.92738548  0.66684788    -0.11600
C1873       C  0.21908067  0.93323399  0.68646424    -0.25600
C1874       C  0.20085680  0.92436571  0.69439972     0.36900
C1875       C  0.18397387  0.88857978  0.65113701     0.06500
F1876       F  0.22083423  0.90943717  0.63555432    -0.19400
H1877       H  0.23978101  0.93439502  0.66037536     0.16300
F1878       F  0.19360147  0.93011646  0.71312714    -0.23100
H1879       H  0.17615520  0.90271427  0.68978544     0.18100
C1880       C  0.19346014  0.87298068  0.63926613     0.26100
C1881       C  0.18139913  0.85905187  0.62794138    -0.11600
C1882       C  0.15940240  0.85882492  0.62947807    -0.25600
C1883       C  0.15005601  0.87461236  0.64154785     0.37000
C1884       C  0.16213351  0.88930462  0.65185094    -0.27300
F1885       F  0.21444849  0.87056907  0.63908535    -0.19400
H1886       H  0.18977308  0.84854142  0.61807840     0.16300
F1887       F  0.12906324  0.87572342  0.64362300    -0.23100
H1888       H  0.15425836  0.90127031  0.66058006     0.18100
C1889       C  0.21877798  0.07362012  0.66687487    -0.27100
C1890       C  0.19690031  0.07378902  0.66691035     0.06500
C1891       C  0.18623623  0.05758004  0.67684666     0.26100
C1892       C  0.19729540  0.04184065  0.68686064    -0.11600
C1893       C  0.21914191  0.04177685  0.68690929    -0.25600
C1894       C  0.22981945  0.05774529  0.67665759     0.36900
C1895       C  0.18545287  0.09020331  0.65550738     0.06500
F1896       F  0.16515325  0.05654269  0.67627726    -0.19400
H1897       H  0.18881331  0.02959659  0.69455241     0.16300
F1898       F  0.25094119  0.05793685  0.67609804    -0.23100
H1899       H  0.22733457  0.08581950  0.65919203     0.18100
C1900       C  0.16892521  0.10129116  0.66447118     0.26100
C1901       C  0.15784745  0.11603922  0.65306730    -0.11600
C1902       C  0.16299866  0.12037551  0.63237210    -0.25600
C1903       C  0.17955850  0.10880875  0.62355311     0.37000
C1904       C  0.19076448  0.09436234  0.63507979    -0.27300
F1905       F  0.16333266  0.09779691  0.68426293    -0.19400
H1906       H  0.14463360  0.12327972  0.66043014     0.16300
F1907       F  0.18488764  0.11128602  0.60355604    -0.23100
H1908       H  0.20325934  0.08582186  0.62773742     0.18100
C1909       C  0.32476604  0.09708638  0.80919435    -0.27100
C1910       C  0.33397364  0.08167470  0.79702580     0.06500
C1911       C  0.35561208  0.07908988  0.79762743     0.26100
C1912       C  0.36763476  0.09113561  0.81083079    -0.11600
C1913       C  0.35850499  0.10575551  0.82436919    -0.25600
C1914       C  0.33674376  0.10926949  0.82242822     0.36900
C1915       C  0.32089511  0.06790967  0.78424923     0.06500
F1916       F  0.36509906  0.06434263  0.78603049    -0.19400
H1917       H  0.38428721  0.08853581  0.81102685     0.16300
F1918       F  0.32687118  0.12504955  0.83216976    -0.23100
H1919       H  0.30815989  0.09987080  0.80825003     0.18100
C1920       C  0.30443118  0.05675685  0.79319859     0.26100
C1921       C  0.29289163  0.04281650  0.78145564    -0.11600
C1922       C  0.29747001  0.03991844  0.76063662    -0.25600
C1923       C  0.31360205  0.05128250  0.75149582     0.37000
C1924       C  0.32527614  0.06516860  0.76327296    -0.27300
F1925       F  0.30004174  0.05874608  0.81348292    -0.19400
H1926       H  0.28052212  0.03402474  0.78864362     0.16300
F1927       F  0.31828801  0.04857083  0.73135729    -0.23100
H1928       H  0.33781695  0.07370334  0.75607790     0.18100
C1929       C  0.35151926  0.89311967  0.80135768    -0.27100
C1930       C  0.33021772  0.89501658  0.80559838     0.06500
C1931       C  0.32199682  0.88437305  0.82253260     0.26100
C1932       C  0.33474581  0.87155622  0.83451217    -0.11600
C1933       C  0.35612388  0.86862104  0.82983852    -0.25600
C1934       C  0.36437437  0.88058125  0.81347048     0.36900
C1935       C  0.31683204  0.90808604  0.79218449     0.06500
F1936       F  0.30151363  0.88612018  0.82738916    -0.19400
H1937       H  0.32766313  0.86446161  0.84778670     0.16300
F1938       F  0.38498430  0.87999789  0.80893504    -0.23100
H1939       H  0.35831395  0.90162703  0.78868967     0.18100
C1940       C  0.30480455  0.92442309  0.80028702     0.26100
C1941       C  0.29309163  0.93712691  0.78722950    -0.11600
C1942       C  0.29318263  0.93386567  0.76589472    -0.25600
C1943       C  0.30498920  0.91741293  0.75782021     0.37000
C1944       C  0.31668620  0.90467670  0.77087121    -0.27300
F1945       F  0.30515834  0.92873478  0.82067277    -0.19400
H1946       H  0.28437687  0.94996899  0.79369017     0.16300
F1947       F  0.30583198  0.91417658  0.73726398    -0.23100
H1948       H  0.32588308  0.89223351  0.76430676     0.18100
C1949       C  0.10977115  0.66265454  0.13313396    -0.27100
C1950       C  0.11365465  0.66450675  0.15419977     0.06500
C1951       C  0.13087751  0.65406119  0.16256576     0.26100
C1952       C  0.14304589  0.64093964  0.15035675    -0.11600
C1953       C  0.13804683  0.63737590  0.12954199    -0.25600
C1954       C  0.12199444  0.64968639  0.12086566     0.36900
C1955       C  0.09894731  0.67619285  0.16751785     0.06500
F1956       F  0.13599757  0.65656999  0.18261062    -0.19400
H1957       H  0.15638431  0.63369073  0.15744161     0.16300
F1958       F  0.11715405  0.64812591  0.10066994    -0.23100
H1959       H  0.09668727  0.67062670  0.12623841     0.18100
C1960       C  0.09168171  0.69607417  0.16206387     0.26100
C1961       C  0.07692800  0.70622782  0.17434011    -0.11600
C1962       C  0.06911712  0.69667270  0.19207561    -0.25600
C1963       C  0.07639823  0.67694814  0.19760102     0.37000
C1964       C  0.09117660  0.66683067  0.18543098    -0.27300
F1965       F  0.09895776  0.70574200  0.14501065    -0.19400
H1966       H  0.07145148  0.72149156  0.16996924     0.16300
F1967       F  0.06904588  0.66743953  0.21469987    -0.23100
H1968       H  0.09619921  0.65140338  0.18975912     0.18100
C1969       C  0.83244677  0.64242689  0.08069700    -0.27100
C1970       C  0.83231904  0.66407098  0.08275101     0.06500
C1971       C  0.84395817  0.67301276  0.09871215     0.26100
C1972       C  0.85652345  0.66068645  0.11133700    -0.11600
C1973       C  0.85819164  0.63904761  0.10824428    -0.25600
C1974       C  0.84477842  0.63005528  0.09343178     0.36900
C1975       C  0.81993264  0.67705739  0.06828661     0.06500
F1976       F  0.84283943  0.69368207  0.10247838    -0.19400
H1977       H  0.86469456  0.66833671  0.12364945     0.16300
F1978       F  0.84442220  0.60923520  0.09044256    -0.23100
H1979       H  0.82333963  0.63501538  0.06881507     0.18100
C1980       C  0.82845867  0.69502633  0.05928238     0.26100
C1981       C  0.81671987  0.70691746  0.04556915    -0.11600
C1982       C  0.79663587  0.70072052  0.03991954    -0.25600
C1983       C  0.78814324  0.68270456  0.04860546     0.37000
C1984       C  0.79963095  0.67109839  0.06277474    -0.27300
F1985       F  0.84846459  0.70060001  0.06294328    -0.19400
H1986       H  0.82355654  0.72063297  0.03876498     0.16300
F1987       F  0.76882155  0.67625231  0.04318093    -0.23100
H1988       H  0.79266191  0.65736837  0.06940195     0.18100
C1989       C  0.91555738  0.66320106  0.13995316    -0.27100
C1990       C  0.91694925  0.65881570  0.16097489     0.06500
C1991       C  0.90414296  0.64325794  0.16915631     0.26100
C1992       C  0.89013086  0.63253445  0.15659666    -0.11600
C1993       C  0.88794605  0.63729439  0.13546712    -0.25600
C1994       C  0.90167388  0.65241289  0.12731339     0.36900
C1995       C  0.93189343  0.67046284  0.17410569     0.06500
F1996       F  0.90495375  0.63853240  0.18943300    -0.19400
H1997       H  0.88142675  0.62014552  0.16366500     0.16300
F1998       F  0.90161552  0.65695337  0.10699375    -0.23100
H1999       H  0.92556501  0.67484469  0.13318502     0.18100
C2000       C  0.94651947  0.66005531  0.18650036     0.26100
C2001       C  0.96091307  0.67129559  0.19817623    -0.11600
C2002       C  0.96096260  0.69306117  0.19780130    -0.25600
C2003       C  0.94626473  0.70348719  0.18562677     0.37000
C2004       C  0.93194997  0.69227046  0.17384167    -0.27300
F2005       F  0.94744435  0.63903197  0.18672317    -0.19400
H2006       H  0.97230893  0.66302209  0.20728676     0.16300
F2007       F  0.94610428  0.72451235  0.18480163    -0.23100
H2008       H  0.92086914  0.70062877  0.16443944     0.18100
C2009       C  0.84111924  0.37214617  0.79808957    -0.27100
C2010       C  0.82949193  0.38862037  0.80624917     0.06500
C2011       C  0.82859689  0.39093247  0.82767197     0.26100
C2012       C  0.84009561  0.37783664  0.84044930    -0.11600
C2013       C  0.85361204  0.36255780  0.83237300    -0.25600
C2014       C  0.85259569  0.35891509  0.81085494     0.36900
C2015       C  0.81811224  0.40316005  0.79248391     0.06500
F2016       F  0.81738665  0.40651992  0.83631210    -0.19400
H2017       H  0.83948934  0.38050808  0.85684603     0.16300
F2018       F  0.86178536  0.34227997  0.80187649    -0.23100
H2019       H  0.84106756  0.36929884  0.78170709     0.18100
C2020       C  0.82808819  0.41257970  0.77560880     0.26100
C2021       C  0.81739063  0.42698525  0.76344144    -0.11600
C2022       C  0.79682825  0.43266113  0.76821527    -0.25600
C2023       C  0.78682049  0.42313222  0.78486839     0.37000
C2024       C  0.79726685  0.40832626  0.79666100    -0.27300
F2025       F  0.84843739  0.40865426  0.77148147    -0.19400
H2026       H  0.82538444  0.43435869  0.75075541     0.16300
F2027       F  0.76705599  0.42852805  0.78998051    -0.23100
H2028       H  0.78912102  0.40109790  0.80932305     0.18100
C2029       C  0.07912475  0.68668146  0.80252040    -0.27100
C2030       C  0.09133591  0.67198875  0.79203470     0.06500
C2031       C  0.08760162  0.66851861  0.77102589     0.26100
C2032       C  0.07215152  0.67987099  0.76075668    -0.11600
C2033       C  0.06007920  0.69461318  0.77132888    -0.25600
C2034       C  0.06362929  0.69786045  0.79231453     0.36900
C2035       C  0.10739474  0.66011566  0.80350106     0.06500
F2036       F  0.09918042  0.65454695  0.76036909    -0.19400
H2037       H  0.06962652  0.67725962  0.74453344     0.16300
F2038       F  0.05222914  0.71205041  0.80285667    -0.23100
H2039       H  0.08149493  0.68937240  0.81875473     0.18100
C2040       C  0.12212143  0.67040105  0.81569993     0.26100
C2041       C  0.13519314  0.65924308  0.82884416    -0.11600
C2042       C  0.13346479  0.63748550  0.83076176    -0.25600
C2043       C  0.12009874  0.62718602  0.81671676     0.37000
C2044       C  0.10711442  0.63840803  0.80353594    -0.27300
F2045       F  0.12376337  0.69136594  0.81501109    -0.19400
H2046       H  0.14644776  0.66794664  0.83757346     0.16300
F2047       F  0.11844261  0.60621158  0.81676824    -0.23100
H2048       H  0.09609068  0.63010622  0.79405232     0.18100
C2049       C  0.11852362  0.36918765  0.06877391    -0.27100
C2050       C  0.10746005  0.38495537  0.07871791     0.06500
C2051       C  0.11068246  0.38828581  0.09968136     0.26100
C2052       C  0.12536251  0.37646997  0.11032863    -0.11600
C2053       C  0.13770936  0.36127065  0.10034777    -0.25600
C2054       C  0.13321516  0.35723435  0.07932766     0.36900
C2055       C  0.09308117  0.39827594  0.06690860     0.06500
F2056       F  0.09941536  0.40281396  0.10991530    -0.19400
H2057       H  0.12733076  0.37932540  0.12658713     0.16300
F2058       F  0.14177786  0.34114829  0.06891559    -0.23100
H2059       H  0.11572293  0.36608589  0.05267320     0.18100
C2060       C  0.09803342  0.41914588  0.06340286     0.26100
C2061       C  0.08537740  0.43137188  0.05083411    -0.11600
C2062       C  0.06740519  0.42308970  0.04171400    -0.25600
C2063       C  0.06203814  0.40231257  0.04591057     0.37000
C2064       C  0.07495105  0.38999220  0.05822876    -0.27300
F2065       F  0.11558956  0.42745291  0.07150314    -0.19400
H2066       H  0.08987793  0.44727847  0.04795135     0.16300
F2067       F  0.04471146  0.39367143  0.03768110    -0.23100
H2068       H  0.07092365  0.37390837  0.06086235     0.18100
C2069       C  0.07821242  0.57253119  0.06334906    -0.27100
C2070       C  0.09716909  0.56407891  0.07013475     0.06500
C2071       C  0.10233641  0.54365812  0.06444259     0.26100
C2072       C  0.08911939  0.53234601  0.05160213    -0.11600
C2073       C  0.07040892  0.54102842  0.04441049    -0.25600
C2074       C  0.06489900  0.56116987  0.05073725     0.36900
C2075       C  0.11116077  0.57691889  0.08305596     0.06500
F2076       F  0.11993504  0.53447819  0.07153169    -0.19400
H2077       H  0.09363590  0.51678711  0.04717019     0.16300
F2078       F  0.04690580  0.57016894  0.04441606    -0.23100
H2079       H  0.07385114  0.58821213  0.06751859     0.18100
C2080       C  0.13250479  0.57882984  0.07874304     0.26100
C2081       C  0.14478480  0.59260448  0.09001502    -0.11600
C2082       C  0.13599585  0.60588687  0.10500225    -0.25600
C2083       C  0.11486847  0.60231245  0.11046013     0.37000
C2084       C  0.10275589  0.58830651  0.09939137    -0.27300
F2085       F  0.14133694  0.56833331  0.06290651    -0.19400
H2086       H  0.16113373  0.59385869  0.08615141     0.16300
F2087       F  0.10575932  0.61137247  0.12696508    -0.23100
H2088       H  0.08657447  0.58633267  0.10365381     0.18100
C2089       C  0.94268576  0.58093816  0.05692429    -0.27100
C2090       C  0.92767181  0.57234276  0.07003345     0.06500
C2091       C  0.92457161  0.55073404  0.06979091     0.26100
C2092       C  0.93618224  0.53808978  0.05647446    -0.11600
C2093       C  0.95125798  0.54672434  0.04341433    -0.25600
C2094       C  0.95443848  0.56833920  0.04383254     0.36900
C2095       C  0.91466628  0.58620353  0.08303648     0.06500
F2096       F  0.90982375  0.54194370  0.08189248    -0.19400
H2097       H  0.93337604  0.52153814  0.05635442     0.16300
F2098       F  0.96837062  0.57748166  0.03105548    -0.23100
H2099       H  0.94525091  0.59753425  0.05676337     0.18100
C2100       C  0.91313418  0.58335705  0.10431784     0.26100
C2101       C  0.90051184  0.59646708  0.11613542    -0.11600
C2102       C  0.88810529  0.61212476  0.10702671    -0.25600
C2103       C  0.89135819  0.61595651  0.08576294     0.37000
C2104       C  0.90415500  0.60294291  0.07407640    -0.27300
F2105       F  0.92405967  0.56807122  0.11375099    -0.19400
H2106       H  0.89969800  0.59382059  0.13252482     0.16300
F2107       F  0.88327054  0.63273184  0.07608840    -0.23100
H2108       H  0.90584793  0.60597943  0.05781122     0.18100
C2109       C  0.94481826  0.40044122  0.89708865    -0.27100
C2110       C  0.92433469  0.40677554  0.89284876     0.06500
C2111       C  0.91716513  0.42570457  0.90105367     0.26100
C2112       C  0.93008419  0.43760792  0.91365012    -0.11600
C2113       C  0.95022317  0.43076008  0.91864474    -0.25600
C2114       C  0.95764629  0.41221588  0.90985339     0.36900
C2115       C  0.91036271  0.39295134  0.88088865     0.06500
F2116       F  0.89729252  0.43214723  0.89796961    -0.19400
H2117       H  0.92394285  0.45178665  0.92022068     0.16300
F2118       F  0.97709567  0.40510320  0.91394724    -0.23100
H2119       H  0.95082329  0.38609720  0.89074649     0.18100
C2120       C  0.89789060  0.40060526  0.86492570     0.26100
C2121       C  0.88447919  0.38739679  0.85427551    -0.11600
C2122       C  0.88277949  0.36609324  0.85936502    -0.25600
C2123       C  0.89672652  0.35835473  0.87437992     0.37000
C2124       C  0.90983541  0.37165766  0.88522677    -0.27300
F2125       F  0.89926875  0.42072097  0.85896601    -0.19400
H2126       H  0.87613045  0.39406723  0.84153112     0.16300
F2127       F  0.89723991  0.33785212  0.87904187    -0.23100
H2128       H  0.91954107  0.36524045  0.89722992     0.18100
C2129       C  0.09742504  0.60155140  0.87472184    -0.27100
C2130       C  0.10671781  0.58655462  0.88726540     0.06500
C2131       C  0.12849993  0.58552855  0.88819433     0.26100
C2132       C  0.14061668  0.59847446  0.87583373    -0.11600
C2133       C  0.13143717  0.61232825  0.86160767    -0.25600
C2134       C  0.10945830  0.61470760  0.86255464     0.36900
C2135       C  0.09355871  0.57251355  0.89974682     0.06500
F2136       F  0.13808572  0.57216768  0.90122205    -0.19400
H2137       H  0.15739359  0.59707451  0.87670618     0.16300
F2138       F  0.09928330  0.63026012  0.85280700    -0.23100
H2139       H  0.08064772  0.60317883  0.87436521     0.18100
C2140       C  0.07743329  0.58053554  0.91200989     0.26100
C2141       C  0.06514428  0.56728130  0.92377539    -0.11600
C2142       C  0.06876453  0.54579482  0.92377339    -0.25600
C2143       C  0.08459882  0.53765310  0.91120537     0.37000
C2144       C  0.09687193  0.55095395  0.89928363    -0.27300
F2145       F  0.07400258  0.60127769  0.91320462    -0.19400
H2146       H  0.05313282  0.57398043  0.93340650     0.16300
F2147       F  0.08805816  0.51690747  0.91025753    -0.23100
H2148       H  0.10892497  0.54441940  0.88959101     0.18100
C2149       C  0.07299338  0.39782465  0.89713665    -0.27100
C2150       C  0.09424481  0.40254531  0.89517225     0.06500
C2151       C  0.10223935  0.41992961  0.90545334     0.26100
C2152       C  0.08932942  0.43206877  0.91778718    -0.11600
C2153       C  0.06821850  0.42707853  0.92030268    -0.25600
C2154       C  0.06002089  0.40998743  0.90958769     0.36900
C2155       C  0.10828529  0.38927045  0.88278632     0.06500
F2156       F  0.12277939  0.42468619  0.90427271    -0.19400
H2157       H  0.09609787  0.44505335  0.92591194     0.16300
F2158       F  0.03957061  0.40498733  0.91115641    -0.23100
H2159       H  0.06647376  0.38467894  0.88906056     0.18100
C2160       C  0.10943378  0.36782963  0.88609581     0.26100
C2161       C  0.12388560  0.35584027  0.87529801    -0.11600
C2162       C  0.13827456  0.36489873  0.86149173    -0.25600
C2163       C  0.13595486  0.38644180  0.85737815     0.37000
C2164       C  0.12130488  0.39828350  0.86806182    -0.27300
F2165       F  0.09713599  0.35854727  0.90032101    -0.19400
H2166       H  0.12433043  0.33931806  0.87820982     0.16300
F2167       F  0.14669853  0.39622588  0.84232365    -0.23100
H2168       H  0.12001345  0.41468685  0.86469896     0.18100
C2169       C  0.91694886  0.41779310  0.05879232    -0.27100
C2170       C  0.92627656  0.40087084  0.06878971     0.06500
C2171       C  0.94744479  0.39661445  0.06517629     0.26100
C2172       C  0.95893665  0.40905986  0.05178020    -0.11600
C2173       C  0.94962073  0.42604072  0.04188513    -0.25600
C2174       C  0.92847445  0.43037256  0.04558927     0.36900
C2175       C  0.91371740  0.38780250  0.08281774     0.06500
F2176       F  0.95714023  0.38068858  0.07487674    -0.19400
H2177       H  0.97519921  0.40543286  0.04920144     0.16300
F2178       F  0.91871241  0.44636760  0.03605812    -0.23100
H2179       H  0.90056895  0.42113278  0.06100315     0.18100
C2180       C  0.90074988  0.39695840  0.09760679     0.26100
C2181       C  0.88787823  0.38474646  0.10985627    -0.11600
C2182       C  0.88729603  0.36291831  0.10763028    -0.25600
C2183       C  0.90176411  0.35380877  0.09384038     0.37000
C2184       C  0.91435058  0.36612445  0.08131267    -0.27300
F2185       F  0.90075625  0.41780800  0.10050168    -0.19400
H2186       H  0.87869281  0.39274132  0.12126872     0.16300
F2187       F  0.90299679  0.33289735  0.09174314    -0.23100
H2188       H  0.92430733  0.35866049  0.07009279     0.18100
C2189       C  0.82961926  0.66514279  0.87017527    -0.27100
C2190       C  0.83187957  0.66361892  0.89147476     0.06500
C2191       C  0.84735958  0.65065140  0.89950344     0.26100
C2192       C  0.85992587  0.63885061  0.88645969    -0.11600
C2193       C  0.85686810  0.63892752  0.86494943    -0.25600
C2194       C  0.84198264  0.65313058  0.85703662     0.36900
C2195       C  0.81795542  0.67530344  0.90540420     0.06500
F2196       F  0.85057947  0.64967099  0.92006540    -0.19400
H2197       H  0.87214666  0.62991878  0.89356782     0.16300
F2198       F  0.83865418  0.65464618  0.83653238    -0.23100
H2199       H  0.81787467  0.67528099  0.86371494     0.18100
C2200       C  0.81729218  0.69708524  0.90502753     0.26100
C2201       C  0.80489639  0.70787676  0.91913539    -0.11600
C2202       C  0.79300403  0.69707396  0.93369092    -0.25600
C2203       C  0.79321566  0.67531923  0.93369502     0.37000
C2204       C  0.80566326  0.66453974  0.91968070    -0.27300
F2205       F  0.82926644  0.70787970  0.89160810    -0.19400
H2206       H  0.80495291  0.72467168  0.91908505     0.16300
F2207       F  0.78156926  0.66458203  0.94743493    -0.23100
H2208       H  0.80586343  0.64774835  0.92004143     0.18100
C2209       C  0.90830779  0.66827186  0.83318359    -0.27100
C2210       C  0.90625990  0.66858528  0.81174558     0.06500
C2211       C  0.89077817  0.65614542  0.80276410     0.26100
C2212       C  0.87869496  0.64279909  0.81481987    -0.11600
C2213       C  0.88184890  0.64110068  0.83625187    -0.25600
C2214       C  0.89598466  0.65525330  0.84528967     0.36900
C2215       C  0.92091436  0.68110912  0.79892645     0.06500
F2216       F  0.88711724  0.65699164  0.78227378    -0.19400
H2217       H  0.86677533  0.63402156  0.80707012     0.16300
F2218       F  0.89883928  0.65560765  0.86591812    -0.23100
H2219       H  0.92001826  0.67763309  0.84066554     0.18100
C2220       C  0.92689916  0.70133003  0.80469962     0.26100
C2221       C  0.94211863  0.71205252  0.79349148    -0.11600
C2222       C  0.95130963  0.70310414  0.77603739    -0.25600
C2223       C  0.94480586  0.68327252  0.76981692     0.37000
C2224       C  0.93001020  0.67234143  0.78127523    -0.27300
F2225       F  0.91797192  0.71081224  0.82110367    -0.19400
H2226       H  0.94684086  0.72735122  0.79848709     0.16300
F2227       F  0.95337008  0.67417247  0.75301467    -0.23100
H2228       H  0.92611034  0.65671311  0.77661426     0.18100
C2229       C  0.82341178  0.59350018  0.82738161    -0.27100
C2230       C  0.83355316  0.58169492  0.81233415     0.06500
C2231       C  0.85522816  0.58336859  0.81038105     0.26100
C2232       C  0.86627996  0.59731458  0.82256524    -0.11600
C2233       C  0.85620955  0.61015504  0.83714343    -0.25600
C2234       C  0.83448105  0.60700108  0.84008541     0.36900
C2235       C  0.82153240  0.56747410  0.79894069     0.06500
F2236       F  0.86585596  0.57114630  0.79700764    -0.19400
H2237       H  0.88298143  0.59825616  0.82051032     0.16300
F2238       F  0.82373117  0.61567132  0.85580668    -0.23100
H2239       H  0.80675215  0.59211792  0.82951965     0.18100
C2240       C  0.80664197  0.55382429  0.80723495     0.26100
C2241       C  0.79559833  0.54043399  0.79441289    -0.11600
C2242       C  0.79930533  0.54030761  0.77321159    -0.25600
C2243       C  0.81410883  0.55386472  0.76486341     0.37000
C2244       C  0.82500152  0.56743786  0.77762647    -0.27300
F2245       F  0.80325844  0.55290654  0.82777655    -0.19400
H2246       H  0.78434966  0.52987521  0.80103292     0.16300
F2247       F  0.81821836  0.55369725  0.74443026    -0.23100
H2248       H  0.83618874  0.57794819  0.77084648     0.18100
C2249       C  0.89127711  0.58247032  0.88636299    -0.27100
C2250       C  0.91287875  0.58392079  0.88365681     0.06500
C2251       C  0.92063325  0.59774676  0.86893120     0.26100
C2252       C  0.90710362  0.61051012  0.85786600    -0.11600
C2253       C  0.88536870  0.61053903  0.86164092    -0.25600
C2254       C  0.87769249  0.59529870  0.87539365     0.36900
C2255       C  0.92709928  0.57081081  0.89611552     0.06500
F2256       F  0.94132649  0.59854481  0.86477814    -0.19400
H2257       H  0.91402159  0.62001966  0.84609427     0.16300
F2258       F  0.85694829  0.59316782  0.87870683    -0.23100
H2259       H  0.88487207  0.57158126  0.89732041     0.18100
C2260       C  0.94388656  0.57957769  0.90691509     0.26100
C2261       C  0.95639047  0.56720703  0.91953446    -0.11600
C2262       C  0.95223623  0.54596597  0.92188771    -0.25600
C2263       C  0.93579306  0.53710319  0.91067164     0.37000
C2264       C  0.92338841  0.54944283  0.89794827    -0.27300
F2265       F  0.94756529  0.60027936  0.90612949    -0.19400
H2266       H  0.96883692  0.57445234  0.92810885     0.16300
F2267       F  0.93156453  0.51654305  0.91208147    -0.23100
H2268       H  0.91070471  0.54231593  0.88961351     0.18100
C2269       C  0.21160118  0.55461793  0.81120170    -0.27100
C2270       C  0.20146042  0.57013672  0.79986462     0.06500
C2271       C  0.20526390  0.57179087  0.77867805     0.26100
C2272       C  0.21844422  0.55756448  0.76894915    -0.11600
C2273       C  0.22798156  0.54166363  0.78026301    -0.25600
C2274       C  0.22478220  0.54049551  0.80150836     0.36900
C2275       C  0.18645782  0.58393266  0.81032642     0.06500
F2276       F  0.19565916  0.58661786  0.76732345    -0.19400
H2277       H  0.22094387  0.55867854  0.75254569     0.16300
F2278       F  0.23443993  0.52566596  0.81281708    -0.23100
H2279       H  0.20917031  0.55337970  0.82760737     0.18100
C2280       C  0.17036769  0.57543294  0.82212692     0.26100
C2281       C  0.15709876  0.58825483  0.83332613    -0.11600
C2282       C  0.15979744  0.61003110  0.83359442    -0.25600
C2283       C  0.17491242  0.61844113  0.82007093     0.37000
C2284       C  0.18826887  0.60551058  0.80891911    -0.27300
F2285       F  0.16724446  0.55461706  0.82255168    -0.19400
H2286       H  0.14449752  0.58077399  0.84136524     0.16300
F2287       F  0.17732743  0.63926358  0.81827882    -0.23100
H2288       H  0.20036295  0.61236944  0.79954333     0.18100
C2289       C  0.21532588  0.42410322  0.81399703    -0.27100
C2290       C  0.21232426  0.40413891  0.80575191     0.06500
C2291       C  0.22097051  0.39973072  0.78630007     0.26100
C2292       C  0.23073005  0.41527379  0.77497186    -0.11600
C2293       C  0.23425934  0.43494276  0.78350054    -0.25600
C2294       C  0.22690666  0.43898496  0.80346646     0.36900
C2295       C  0.19923760  0.38864163  0.81691422     0.06500
F2296       F  0.22053023  0.38033638  0.77825096    -0.19400
H2297       H  0.23592924  0.41172277  0.75955488     0.16300
F2298       F  0.23069440  0.45743661  0.81276973    -0.23100
H2299       H  0.20850805  0.42849342  0.82854229     0.18100
C2300       C  0.19846358  0.38801114  0.83850718     0.26100
C2301       C  0.18382929  0.37561564  0.84848911    -0.11600
C2302       C  0.17020642  0.36253163  0.83747539    -0.25600
C2303       C  0.17355380  0.36082004  0.81604818     0.37000
C2304       C  0.18669082  0.37466462  0.80596409    -0.27300
F2305       F  0.21184945  0.39922993  0.85013196    -0.19400
H2306       H  0.18287407  0.37648161  0.86505003     0.16300
F2307       F  0.16488071  0.34562769  0.80454623    -0.23100
H2308       H  0.18672809  0.37434805  0.78939331     0.18100
C2309       C  0.80200769  0.55969265  0.16188857    -0.27100
C2310       C  0.81777879  0.57208458  0.17030045     0.06500
C2311       C  0.82257301  0.57021268  0.19126082     0.26100
C2312       C  0.81219764  0.55562619  0.20342182    -0.11600
C2313       C  0.79687957  0.54285290  0.19482375    -0.25600
C2314       C  0.79153709  0.54523874  0.17408325     0.36900
C2315       C  0.83040528  0.58560841  0.15686536     0.06500
F2316       F  0.83792187  0.58184025  0.19969987    -0.19400
H2317       H  0.81634950  0.55398840  0.21943975     0.16300
F2318       F  0.77629070  0.53345483  0.16566819    -0.23100
H2319       H  0.79805201  0.56103203  0.14579249     0.18100
C2320       C  0.84244361  0.57689631  0.14114054     0.26100
C2321       C  0.85570393  0.58928665  0.12943182    -0.11600
C2322       C  0.85780315  0.61078610  0.13335720    -0.25600
C2323       C  0.84420795  0.61958480  0.14821399     0.37000
C2324       C  0.83108126  0.60705993  0.16006485    -0.27300
F2325       F  0.84178816  0.55619094  0.13743302    -0.19400
H2326       H  0.86395646  0.58174190  0.11707607     0.16300
F2327       F  0.84410642  0.64032448  0.15175427    -0.23100
H2328       H  0.82148325  0.61410245  0.17184905     0.18100
C2329       C  0.82931464  0.38813663  0.13569187    -0.27100
C2330       C  0.83172721  0.39006654  0.15703751     0.06500
C2331       C  0.84638928  0.37704897  0.16674578     0.26100
C2332       C  0.85800395  0.36271317  0.15544481    -0.11600
C2333       C  0.85738390  0.36240030  0.13379799    -0.25600
C2334       C  0.84231233  0.37520330  0.12418396     0.36900
C2335       C  0.81921678  0.40567634  0.16891119     0.06500
F2336       F  0.85044933  0.37863066  0.18710434    -0.19400
H2337       H  0.86793484  0.35246361  0.16407097     0.16300
F2338       F  0.84057958  0.37583465  0.10344401    -0.23100
H2339       H  0.81753083  0.39688475  0.12761509     0.18100
C2340       C  0.81339779  0.42495032  0.16026109     0.26100
C2341       C  0.80175677  0.43924955  0.17162684    -0.11600
C2342       C  0.79687952  0.43552402  0.19229686    -0.25600
C2343       C  0.80320396  0.41667917  0.20117181     0.37000
C2344       C  0.81330623  0.40164976  0.18935620    -0.27300
F2345       F  0.81953573  0.43054440  0.14112500    -0.19400
H2346       H  0.79707195  0.45364838  0.16441594     0.16300
F2347       F  0.79975949  0.41280324  0.22136433    -0.23100
H2348       H  0.81651389  0.38685509  0.19646232     0.18100
C2349       C  0.09476262  0.18671326  0.68855361    -0.27100
C2350       C  0.09442396  0.18926762  0.66711793     0.06500
C2351       C  0.07989382  0.20320810  0.65854635     0.26100
C2352       C  0.06584962  0.21391858  0.67118440    -0.11600
C2353       C  0.06612962  0.21107847  0.69253135    -0.25600
C2354       C  0.08081551  0.19752474  0.70114822     0.36900
C2355       C  0.10854722  0.17656004  0.65394650     0.06500
F2356       F  0.07929803  0.20655768  0.63799410    -0.19400
H2357       H  0.05454129  0.22427303  0.66431730     0.16300
F2358       F  0.08110218  0.19416527  0.72169768    -0.23100
H2359       H  0.10544553  0.17581225  0.69554709     0.18100
C2360       C  0.12975725  0.17428527  0.65870169     0.26100
C2361       C  0.14246508  0.16109405  0.64707111    -0.11600
C2362       C  0.13436433  0.14904704  0.63082333    -0.25600
C2363       C  0.11340055  0.15297531  0.62503449     0.37000
C2364       C  0.10071034  0.16608217  0.63676630    -0.27300
F2365       F  0.13831912  0.18502779  0.67447455    -0.19400
H2366       H  0.15875886  0.15991403  0.65110113     0.16300
F2367       F  0.10507277  0.14500629  0.60763597    -0.23100
H2368       H  0.08454569  0.16787493  0.63242976     0.18100
C2369       C  0.93125538  0.17818033  0.69601554    -0.27100
C2370       C  0.93054662  0.18078367  0.67466468     0.06500
C2371       C  0.94381764  0.19516910  0.66520538     0.26100
C2372       C  0.95771231  0.20673364  0.67698624    -0.11600
C2373       C  0.95873183  0.20390791  0.69829862    -0.25600
C2374       C  0.94539571  0.18955810  0.70779768     0.36900
C2375       C  0.91722389  0.16732870  0.66203969     0.06500
F2376       F  0.94350449  0.19776559  0.64454032    -0.19400
H2377       H  0.96797704  0.21767387  0.66947678     0.16300
F2378       F  0.94653739  0.18615313  0.72831366    -0.23100
H2379       H  0.92132199  0.16687448  0.70342099     0.18100
C2380       C  0.92627314  0.15165372  0.65019339     0.26100
C2381       C  0.91394773  0.13909105  0.63780809    -0.11600
C2382       C  0.89217724  0.14230945  0.63616471    -0.25600
C2383       C  0.88317750  0.15761538  0.64909832     0.37000
C2384       C  0.89561319  0.16998932  0.66176756    -0.27300
F2385       F  0.94711265  0.14819114  0.65096988    -0.19400
H2386       H  0.92176910  0.12647007  0.63013043     0.16300
F2387       F  0.86227579  0.16070980  0.64934203    -0.23100
H2388       H  0.88840341  0.18182949  0.67120547     0.18100
C2389       C  0.90053345  0.30315072  0.82791908    -0.27100
C2390       C  0.91421945  0.31267126  0.81407341     0.06500
C2391       C  0.91336811  0.33434702  0.81197506     0.26100
C2392       C  0.89838913  0.34585109  0.82255268    -0.11600
C2393       C  0.88399446  0.33640786  0.83610630    -0.25600
C2394       C  0.88636177  0.31474484  0.83947314     0.36900
C2395       C  0.92918271  0.29995316  0.80188025     0.06500
F2396       F  0.92726109  0.34460322  0.80001353    -0.19400
H2397       H  0.89797401  0.36245433  0.82011546     0.16300
F2398       F  0.87632834  0.30446219  0.85462427    -0.23100
H2399       H  0.90084417  0.28651992  0.83007366     0.18100
C2400       C  0.93964972  0.28280574  0.81056457     0.26100
C2401       C  0.95324933  0.27085497  0.79866379    -0.11600
C2402       C  0.95763417  0.27641102  0.77831761    -0.25600
C2403       C  0.94722446  0.29339655  0.76958893     0.37000
C2404       C  0.93285634  0.30474441  0.78113039    -0.27300
F2405       F  0.93744104  0.27798937  0.83071887    -0.19400
H2406       H  0.96105096  0.25769375  0.80556952     0.16300
F2407       F  0.95099006  0.29899634  0.74985698    -0.23100
H2408       H  0.92458730  0.31732572  0.77374988     0.18100
C2409       C  0.11294126  0.33583794  0.80832680    -0.27100
C2410       C  0.10854495  0.31499358  0.81268630     0.06500
C2411       C  0.11869443  0.30566430  0.82945922     0.26100
C2412       C  0.13353648  0.31659555  0.84074710    -0.11600
C2413       C  0.13851091  0.33741429  0.83610458    -0.25600
C2414       C  0.12676899  0.34714738  0.82039656     0.36900
C2415       C  0.09340693  0.30323027  0.79979723     0.06500
F2416       F  0.11371100  0.28620861  0.83564626    -0.19400
H2417       H  0.14026704  0.30878054  0.85380981     0.16300
F2418       F  0.12920155  0.36757916  0.81608744    -0.23100
H2419       H  0.10574849  0.34357884  0.79543089     0.18100
C2420       C  0.07541796  0.31285173  0.79176055     0.26100
C2421       C  0.06189827  0.30181462  0.77908356    -0.11600
C2422       C  0.06520370  0.28067928  0.77509403    -0.25600
C2423       C  0.08268626  0.27083345  0.78357613     0.37000
C2424       C  0.09693510  0.28215456  0.79523132    -0.27300
F2425       F  0.07031129  0.33265721  0.79673912    -0.19400
H2426       H  0.04828965  0.30958216  0.77296422     0.16300
F2427       F  0.08577335  0.25018368  0.78089504    -0.23100
H2428       H  0.11074818  0.27429992  0.80068797     0.18100
C2429       C  0.71534755  0.16777254  0.06151282    -0.27100
C2430       C  0.69443466  0.17275465  0.06590041     0.06500
C2431       C  0.68580662  0.19048551  0.05638365     0.26100
C2432       C  0.69779779  0.20271595  0.04307968    -0.11600
C2433       C  0.71830701  0.19711295  0.03804317    -0.25600
C2434       C  0.72700252  0.17951520  0.04750543     0.36900
C2435       C  0.68187730  0.15952866  0.08032996     0.06500
F2436       F  0.66552930  0.19566659  0.05922911    -0.19400
H2437       H  0.69083222  0.21634159  0.03619873     0.16300
F2438       F  0.74683415  0.17366209  0.04317205    -0.23100
H2439       H  0.72279445  0.15472481  0.06894446     0.18100
C2440       C  0.68350650  0.13773396  0.08020137     0.26100
C2441       C  0.67207282  0.12569865  0.09409818    -0.11600
C2442       C  0.65860311  0.13474885  0.10879813    -0.25600
C2443       C  0.65583160  0.15658686  0.10769178     0.37000
C2444       C  0.66783340  0.16862557  0.09425433    -0.27300
F2445       F  0.69584800  0.12785631  0.06638057    -0.19400
H2446       H  0.67403292  0.10902033  0.09365350     0.16300
F2447       F  0.64097236  0.16665247  0.11862243    -0.23100
H2448       H  0.66597922  0.18529082  0.09481688     0.18100
C2449       C  0.69108215  0.14030914  0.88449710    -0.27100
C2450       C  0.68949206  0.16204506  0.88520475     0.06500
C2451       C  0.67625972  0.17176049  0.87083957     0.26100
C2452       C  0.66463838  0.15997303  0.85696147    -0.11600
C2453       C  0.66360021  0.13815474  0.85856837    -0.25600
C2454       C  0.67799270  0.12853743  0.87201030     0.36900
C2455       C  0.70121474  0.17412875  0.90114703     0.06500
F2456       F  0.67354078  0.19262058  0.87063794    -0.19400
H2457       H  0.65598810  0.16837213  0.84549742     0.16300
F2458       F  0.67883120  0.10759822  0.87381477    -0.23100
H2459       H  0.70212591  0.13214624  0.89405745     0.18100
C2460       C  0.70492884  0.16577216  0.92087221     0.26100
C2461       C  0.71621074  0.17690792  0.93545332    -0.11600
C2462       C  0.72272197  0.19728449  0.93158445    -0.25600
C2463       C  0.71824443  0.20608682  0.91232197     0.37000
C2464       C  0.70848837  0.19432986  0.89707908    -0.27300
F2465       F  0.69708300  0.14712864  0.92657293    -0.19400
H2466       H  0.71938905  0.16972595  0.95014232     0.16300
F2467       F  0.72319416  0.22611677  0.90821063    -0.23100
H2468       H  0.70671911  0.20124699  0.88208898     0.18100
C2469       C  0.79922340  0.29414113  0.06971436    -0.27100
C2470       C  0.82092492  0.29573139  0.06782840     0.06500
C2471       C  0.83116520  0.28446654  0.05229958     0.26100
C2472       C  0.81976676  0.27249940  0.03845992    -0.11600
C2473       C  0.79798050  0.27159839  0.03976816    -0.25600
C2474       C  0.78777811  0.28231903  0.05570017     0.36900
C2475       C  0.83275151  0.31004320  0.08120863     0.06500
F2476       F  0.85220130  0.28519634  0.05041878    -0.19400
H2477       H  0.82789869  0.26422183  0.02639139     0.16300
F2478       F  0.76671915  0.28193101  0.05725348    -0.23100
H2479       H  0.79107364  0.30272729  0.08155111     0.18100
C2480       C  0.84534868  0.32538148  0.07246512     0.26100
C2481       C  0.85752956  0.33810853  0.08483300    -0.11600
C2482       C  0.85795033  0.33571719  0.10643354    -0.25600
C2483       C  0.84339655  0.32170272  0.11512671     0.37000
C2484       C  0.83130419  0.30878794  0.10263270    -0.27300
F2485       F  0.84554030  0.32839113  0.05184474    -0.19400
H2486       H  0.86622899  0.35007978  0.07711473     0.16300
F2487       F  0.84154829  0.31986499  0.13580048    -0.23100
H2488       H  0.82108628  0.29751623  0.10970012     0.18100
C2489       C  0.84069975  0.32907143  0.89643867    -0.27100
C2490       C  0.83015582  0.31194138  0.88842295     0.06500
C2491       C  0.82906526  0.30968420  0.86699588     0.26100
C2492       C  0.84011985  0.32323725  0.85411172    -0.11600
C2493       C  0.85328960  0.33877705  0.86227177    -0.25600
C2494       C  0.85143814  0.34276197  0.88365837     0.36900
C2495       C  0.81995004  0.29713290  0.90275664     0.06500
F2496       F  0.81828118  0.29375965  0.85854990    -0.19400
H2497       H  0.83976312  0.32054132  0.83771178     0.16300
F2498       F  0.85908143  0.36016131  0.89251285    -0.23100
H2499       H  0.84037313  0.33204603  0.91279980     0.18100
C2500       C  0.83130991  0.28800240  0.91889600     0.26100
C2501       C  0.82126502  0.27568914  0.93358586    -0.11600
C2502       C  0.79969943  0.27234322  0.93258181    -0.25600
C2503       C  0.78843537  0.28109768  0.91618112     0.37000
C2504       C  0.79851420  0.29325477  0.90138092    -0.27300
F2505       F  0.85214154  0.29108730  0.92049093    -0.19400
H2506       H  0.83026905  0.26895530  0.94594869     0.16300
F2507       F  0.76752216  0.27851428  0.91490954    -0.23100
H2508       H  0.78942039  0.30030963  0.88926253     0.18100
C2509       C  0.19939057  0.69773250  0.06427562    -0.27100
C2510       C  0.19880603  0.67616107  0.06144328     0.06500
C2511       C  0.20993021  0.66724438  0.04508967     0.26100
C2512       C  0.22128966  0.67977653  0.03169160    -0.11600
C2513       C  0.22148266  0.70140974  0.03416972    -0.25600
C2514       C  0.21046856  0.71032729  0.05063450     0.36900
C2515       C  0.18599207  0.66305412  0.07508020     0.06500
F2516       F  0.20981791  0.64640784  0.04212598    -0.19400
H2517       H  0.22968438  0.67265584  0.01908852     0.16300
F2518       F  0.21001082  0.73120761  0.05318313    -0.23100
H2519       H  0.19075132  0.70484935  0.07671578     0.18100
C2520       C  0.18932639  0.66279460  0.09629088     0.26100
C2521       C  0.17735470  0.64996258  0.10884494    -0.11600
C2522       C  0.16210485  0.63647953  0.10062751    -0.25600
C2523       C  0.15781803  0.63823131  0.07930819     0.37000
C2524       C  0.16998659  0.65098933  0.06680320    -0.27300
F2525       F  0.20459730  0.67446786  0.10481197    -0.19400
H2526       H  0.18052291  0.64994244  0.12516160     0.16300
F2527       F  0.14127529  0.62887912  0.07038853    -0.23100
H2528       H  0.16659215  0.65182034  0.05054432     0.18100
C2529       C  0.21163694  0.66880737  0.91526048    -0.27100
C2530       C  0.19552298  0.67701642  0.90308682     0.06500
C2531       C  0.19159327  0.69855505  0.90400179     0.26100
C2532       C  0.20346501  0.71137962  0.91679739    -0.11600
C2533       C  0.21952305  0.70303921  0.92877286    -0.25600
C2534       C  0.22362722  0.68168356  0.92780745     0.36900
C2535       C  0.18309354  0.66318165  0.88938131     0.06500
F2536       F  0.17647853  0.70730916  0.89232613    -0.19400
H2537       H  0.19996650  0.72779467  0.91759345     0.16300
F2538       F  0.23907426  0.67327442  0.93932292    -0.23100
H2539       H  0.21478185  0.65231485  0.91535849     0.18100
C2540       C  0.19272741  0.64765763  0.87752321     0.26100
C2541       C  0.18103049  0.63526294  0.86425873    -0.11600
C2542       C  0.15937734  0.63841086  0.86154960    -0.25600
C2543       C  0.14971368  0.65330574  0.87444279     0.37000
C2544       C  0.16139505  0.66541938  0.88801821    -0.27300
F2545       F  0.21362297  0.64462143  0.87833354    -0.19400
H2546       H  0.18930750  0.62303769  0.85640600     0.16300
F2547       F  0.12882750  0.65636525  0.87378922    -0.23100
H2548       H  0.15333861  0.67657867  0.89758812     0.18100
C2549       C  0.30282122  0.80886471  0.05656454    -0.27100
C2550       C  0.32115460  0.80044096  0.06489046     0.06500
C2551       C  0.32752562  0.78049830  0.05860227     0.26100
C2552       C  0.31625893  0.76968448  0.04368018    -0.11600
C2553       C  0.29829114  0.77837985  0.03500730    -0.25600
C2554       C  0.29147105  0.79795141  0.04174344     0.36900
C2555       C  0.33398314  0.81288666  0.07936372     0.06500
F2556       F  0.34454785  0.77139020  0.06702434    -0.19400
H2557       H  0.32152899  0.75448128  0.03884782     0.16300
F2558       F  0.27403347  0.80660907  0.03368932    -0.23100
H2559       H  0.29758950  0.82415009  0.06117345     0.18100
C2560       C  0.35526083  0.81594283  0.07565195     0.26100
C2561       C  0.36716303  0.82802479  0.08896080    -0.11600
C2562       C  0.35826354  0.83823572  0.10608920    -0.25600
C2563       C  0.33695419  0.83408679  0.11032629     0.37000
C2564       C  0.32502521  0.82198083  0.09684590    -0.27300
F2565       F  0.36452136  0.80771604  0.05876828    -0.19400
H2566       H  0.38355040  0.82983942  0.08556464     0.16300
F2567       F  0.32766982  0.84044302  0.12793751    -0.23100
H2568       H  0.30877360  0.81925990  0.10035682     0.18100
C2569       C  0.30084686  0.80600016  0.90175454    -0.27100
C2570       C  0.32203178  0.80144261  0.89883649     0.06500
C2571       C  0.33114221  0.78528061  0.91022125     0.26100
C2572       C  0.31924683  0.77402739  0.92437956    -0.11600
C2573       C  0.29816676  0.77883619  0.92754341    -0.25600
C2574       C  0.28901770  0.79491022  0.91610607     0.36900
C2575       C  0.33478481  0.81438207  0.88482447     0.06500
F2576       F  0.35154596  0.78042894  0.90764701    -0.19400
H2577       H  0.32652883  0.76173286  0.93313765     0.16300
F2578       F  0.26883585  0.80026471  0.91931090    -0.23100
H2579       H  0.29364427  0.81857691  0.89332859     0.18100
C2580       C  0.33077745  0.81507186  0.86370948     0.26100
C2581       C  0.34281576  0.82767062  0.85084134    -0.11600
C2582       C  0.35841664  0.84097270  0.85871661    -0.25600
C2583       C  0.36290848  0.83923469  0.88003751     0.37000
C2584       C  0.35112382  0.82624165  0.89272013    -0.27300
F2585       F  0.31539077  0.80333767  0.85548069    -0.19400
H2586       H  0.33955225  0.82751760  0.83454307     0.16300
F2587       F  0.37933081  0.84889555  0.88884029    -0.23100
H2588       H  0.35478860  0.82544777  0.90892253     0.18100
C2589       C  0.22684276  0.41536483  0.14693821    -0.27100
C2590       C  0.21376886  0.40120713  0.15708299     0.06500
C2591       C  0.21333824  0.40117075  0.17869322     0.26100
C2592       C  0.22511630  0.41556264  0.18979749    -0.11600
C2593       C  0.23750860  0.43017593  0.17956923    -0.25600
C2594       C  0.23857852  0.42975404  0.15805457     0.36900
C2595       C  0.19951017  0.38763861  0.14514014     0.06500
F2596       F  0.20070640  0.38795517  0.18904317    -0.19400
H2597       H  0.22410587  0.41574293  0.20638840     0.16300
F2598       F  0.25072381  0.44352157  0.14783975    -0.23100
H2599       H  0.22767784  0.41550338  0.13034112     0.18100
C2600       C  0.18626605  0.39616689  0.13025740     0.26100
C2601       C  0.17161641  0.38380678  0.12024495    -0.11600
C2602       C  0.16940250  0.36245337  0.12484998    -0.25600
C2603       C  0.18410843  0.35373141  0.13861789     0.37000
C2604       C  0.19854050  0.36625144  0.14891987    -0.27300
F2605       F  0.18708767  0.41668384  0.12567939    -0.19400
H2606       H  0.16239248  0.39125274  0.10854175     0.16300
F2607       F  0.18397729  0.33310884  0.14275220    -0.23100
H2608       H  0.20900866  0.35920325  0.15991475     0.18100
C2609       C  0.21930157  0.55199853  0.14945518    -0.27100
C2610       C  0.20725436  0.56642014  0.16048185     0.06500
C2611       C  0.20848020  0.56669206  0.18203117     0.26100
C2612       C  0.22121933  0.55250366  0.19229110    -0.11600
C2613       C  0.23298587  0.53791340  0.18124833    -0.25600
C2614       C  0.23214316  0.53792003  0.15971609     0.36900
C2615       C  0.19318745  0.58081957  0.14943421     0.06500
F2616       F  0.19750234  0.58078580  0.19313369    -0.19400
H2617       H  0.22174464  0.55270379  0.20890191     0.16300
F2618       F  0.24357556  0.52413571  0.14867492    -0.23100
H2619       H  0.21847510  0.55139276  0.13286966     0.18100
C2620       C  0.20043167  0.59255906  0.13281334     0.26100
C2621       C  0.18693143  0.60561880  0.12211615    -0.11600
C2622       C  0.16584916  0.60806201  0.12809363    -0.25600
C2623       C  0.15861275  0.59541940  0.14440292     0.37000
C2624       C  0.17216391  0.58227069  0.15500149    -0.27300
F2625       F  0.22067627  0.59148793  0.12689947    -0.19400
H2626       H  0.19321671  0.61329216  0.10876747     0.16300
F2627       F  0.13832906  0.59574846  0.15019527    -0.23100
H2628       H  0.16609460  0.57286019  0.16739549     0.18100
C2629       C  0.19410818  0.16936630  0.59728300    -0.27100
C2630       C  0.18492780  0.17748248  0.57948589     0.06500
C2631       C  0.16393643  0.17304435  0.57555280     0.26100
C2632       C  0.15271367  0.16021854  0.58878033    -0.11600
C2633       C  0.16235038  0.15008643  0.60550059    -0.25600
C2634       C  0.18297583  0.15620625  0.61038814     0.36900
C2635       C  0.19752828  0.18988735  0.56480625     0.06500
F2636       F  0.15447701  0.18018950  0.55833885    -0.19400
H2637       H  0.13656401  0.15721718  0.58520066     0.16300
F2638       F  0.19239318  0.15018833  0.62802429    -0.23100
H2639       H  0.21002120  0.17330730  0.60109551     0.18100
C2640       C  0.19031953  0.20900331  0.55708232     0.26100
C2641       C  0.20209884  0.21994053  0.54262082    -0.11600
C2642       C  0.22116918  0.21201713  0.53562083    -0.25600
C2643       C  0.22857280  0.19316157  0.54351408     0.37000
C2644       C  0.21687468  0.18225395  0.55803638    -0.27300
F2645       F  0.17207156  0.21727099  0.56372318    -0.19400
H2646       H  0.19630970  0.23455746  0.53674046     0.16300
F2647       F  0.24703662  0.18526272  0.53701302    -0.23100
H2648       H  0.22272771  0.16757372  0.56369755     0.18100
C2649       C  0.19948267  0.16109161  0.37133194    -0.27100
C2650       C  0.18949842  0.17435663  0.38522156     0.06500
C2651       C  0.16771286  0.17536871  0.38522321     0.26100
C2652       C  0.15619978  0.16208547  0.37269766    -0.11600
C2653       C  0.16597371  0.14729976  0.35976874    -0.25600
C2654       C  0.18804793  0.14822694  0.35827457     0.36900
C2655       C  0.20190708  0.18674041  0.39992115     0.06500
F2656       F  0.15750636  0.18861696  0.39794025    -0.19400
H2657       H  0.13937925  0.16280014  0.37361186     0.16300
F2658       F  0.19893577  0.13773400  0.34378754    -0.23100
H2659       H  0.21631915  0.16093474  0.37038212     0.18100
C2660       C  0.21571908  0.17686968  0.41352576     0.26100
C2661       C  0.22685231  0.18848183  0.42791638    -0.11600
C2662       C  0.22452041  0.21009351  0.42885980    -0.25600
C2663       C  0.21093891  0.22001589  0.41511025     0.37000
C2664       C  0.19968276  0.20839139  0.40079277    -0.27300
F2665       F  0.21790775  0.15592821  0.41332735    -0.19400
H2666       H  0.23715510  0.18061759  0.43851987     0.16300
F2667       F  0.20833592  0.24088835  0.41581543    -0.23100
H2668       H  0.18919333  0.21626899  0.39038198     0.18100
C2669       C  0.59863524  0.18821772  0.18381994    -0.27100
C2670       C  0.59643426  0.16655013  0.18399697     0.06500
C2671       C  0.58158405  0.15752803  0.19711568     0.26100
C2672       C  0.56851882  0.17008446  0.20899806    -0.11600
C2673       C  0.57002359  0.19177797  0.20798269    -0.25600
C2674       C  0.58550254  0.20076706  0.19562597     0.36900
C2675       C  0.60904073  0.15373137  0.16972558     0.06500
F2676       F  0.57957674  0.13661510  0.19829272    -0.19400
H2677       H  0.55673871  0.16292943  0.21854969     0.16300
F2678       F  0.58727674  0.22168684  0.19427314    -0.23100
H2679       H  0.60999228  0.19547228  0.17385566     0.18100
C2680       C  0.59952424  0.13972016  0.15622591     0.26100
C2681       C  0.61143414  0.12860021  0.14200994    -0.11600
C2682       C  0.63313134  0.13194905  0.13992726    -0.25600
C2683       C  0.64257267  0.14544432  0.15438772     0.46600
C2684       C  0.63065306  0.15622817  0.16884628    -0.27300
F2685       F  0.57854357  0.13721991  0.15628824    -0.19400
H2686       H  0.60325674  0.11733390  0.13287071     0.16300
F2687       F  0.66341544  0.14870461  0.15420901    -0.23100
H2688       H  0.63834405  0.16675808  0.17931946     0.18100
C2689       C  0.39798768  0.16509211  0.16556976    -0.27100
C2690       C  0.41926383  0.16053316  0.16725633     0.06500
C2691       C  0.42740421  0.14368609  0.15624359     0.26100
C2692       C  0.41463808  0.13196391  0.14343746    -0.11600
C2693       C  0.39339300  0.13704492  0.14056360    -0.25600
C2694       C  0.38510873  0.15329080  0.15276334     0.36900
C2695       C  0.43302788  0.17307881  0.18062581     0.06500
F2696       F  0.44789572  0.13868910  0.15761832    -0.19400
H2697       H  0.42164726  0.11866429  0.13608694     0.16300
F2698       F  0.36453797  0.15802786  0.15200815    -0.23100
H2699       H  0.39128337  0.17769678  0.17437473     0.18100
C2700       C  0.43475500  0.19466075  0.17796760     0.26100
C2701       C  0.44920635  0.20597368  0.18947936    -0.11600
C2702       C  0.46202638  0.19594756  0.20382005    -0.25600
C2703       C  0.45982838  0.17454073  0.20696119     0.37000
C2704       C  0.44545310  0.16323237  0.19544896    -0.27300
F2705       F  0.42313493  0.20462764  0.16364777    -0.19400
H2706       H  0.45074025  0.22249492  0.18693112     0.16300
F2707       F  0.47174147  0.16459595  0.22105666    -0.23100
H2708       H  0.44416319  0.14667960  0.19793051     0.18100
C2709       C  0.08568188  0.31087136  0.18389614    -0.27100
C2710       C  0.09504458  0.30151232  0.16665568     0.06500
C2711       C  0.09028465  0.28059248  0.16232877     0.26100
C2712       C  0.07574189  0.26986114  0.17428842    -0.11600
C2713       C  0.06627633  0.27941151  0.19124488    -0.25600
C2714       C  0.07172146  0.29985723  0.19624818     0.36900
C2715       C  0.10973395  0.31361318  0.15348902     0.06500
F2716       F  0.10010898  0.27025023  0.14696078    -0.19400
H2717       H  0.07204821  0.25393053  0.17051514     0.16300
F2718       F  0.06331747  0.30921675  0.21298250    -0.23100
H2719       H  0.08896333  0.32686186  0.18773690     0.18100
C2720       C  0.10910172  0.31220599  0.13198414     0.26100
C2721       C  0.12334893  0.32311492  0.11996373    -0.11600
C2722       C  0.13841682  0.33645076  0.12868981    -0.25600
C2723       C  0.13745912  0.33938395  0.15027554     0.37000
C2724       C  0.12391658  0.32752705  0.16236680    -0.27300
F2725       F  0.09417049  0.30096567  0.12238633    -0.19400
H2726       H  0.12252955  0.32124098  0.10347468     0.16300
F2727       F  0.14838871  0.35438838  0.15998548    -0.23100
H2728       H  0.12431623  0.32959299  0.17884690     0.18100
C2729       C  0.94779329  0.16579281  0.28156943    -0.27100
C2730       C  0.93373986  0.17587329  0.29483741     0.06500
C2731       C  0.93401174  0.19770635  0.29575449     0.26100
C2732       C  0.94812717  0.20908074  0.28382804    -0.11600
C2733       C  0.96230802  0.19897929  0.27079743    -0.25600
C2734       C  0.96197825  0.17719805  0.26969943     0.36900
C2735       C  0.91922095  0.16366617  0.30804766     0.06500
F2736       F  0.92042048  0.20807519  0.30800545    -0.19400
H2737       H  0.94813142  0.22584201  0.28486006     0.16300
F2738       F  0.97541983  0.16698691  0.25716491    -0.23100
H2739       H  0.94804905  0.14902659  0.28068574     0.18100
C2740       C  0.90636124  0.14815066  0.29981761     0.26100
C2741       C  0.89254956  0.13712221  0.31243790    -0.11600
C2742       C  0.89072007  0.14151397  0.33366952    -0.25600
C2743       C  0.90461390  0.15645507  0.34186674     0.37000
C2744       C  0.91834005  0.16743167  0.32921768    -0.27300
F2745       F  0.90685965  0.14383969  0.27943753    -0.19400
H2746       H  0.88365554  0.12491088  0.30533038     0.16300
F2747       F  0.90454996  0.16090569  0.36222041    -0.23100
H2748       H  0.92847137  0.17890190  0.33606901     0.18100
C2749       C  0.93202388  0.30244584  0.19171784    -0.27100
C2750       C  0.92934777  0.29806087  0.17073379     0.06500
C2751       C  0.94123305  0.28205344  0.16176161     0.26100
C2752       C  0.95533049  0.27069074  0.17357350    -0.11600
C2753       C  0.95805956  0.27521939  0.19440943    -0.25600
C2754       C  0.94631351  0.29115570  0.20348088     0.36900
C2755       C  0.91477347  0.31067280  0.15815272     0.06500
F2756       F  0.94002063  0.27805502  0.14135568    -0.19400
H2757       H  0.96465726  0.25873401  0.16632913     0.16300
F2758       F  0.94918852  0.29618593  0.22350014    -0.23100
H2759       H  0.92315363  0.31474733  0.19894694     0.18100
C2760       C  0.90059548  0.30123709  0.14474788     0.26100
C2761       C  0.88757363  0.31324486  0.13238257    -0.11600
C2762       C  0.88723403  0.33515942  0.13378647    -0.25600
C2763       C  0.90211587  0.34445586  0.14699485     0.37000
C2764       C  0.91541435  0.33237055  0.15907214    -0.27300
F2765       F  0.89903675  0.28027398  0.14375287    -0.19400
H2766       H  0.87805092  0.30490328  0.12160409     0.16300
F2767       F  0.90358463  0.36539078  0.14855815    -0.23100
H2768       H  0.92647969  0.34004528  0.16901755     0.18100
C2769       C  0.08513922  0.17402276  0.28297517    -0.27100
C2770       C  0.09916006  0.18499620  0.29534482     0.06500
C2771       C  0.09962475  0.20677811  0.29424901     0.26100
C2772       C  0.08511182  0.21734621  0.28204797    -0.11600
C2773       C  0.07045023  0.20625901  0.27042325    -0.25600
C2774       C  0.07108873  0.18451176  0.27043541     0.36900
C2775       C  0.11246058  0.17331170  0.30980507     0.06500
F2776       F  0.11347682  0.21778291  0.30554923    -0.19400
H2777       H  0.08498957  0.23414019  0.28196991     0.16300
F2778       F  0.05774526  0.17345292  0.25861065    -0.23100
H2779       H  0.08493392  0.15722953  0.28324655     0.18100
C2780       C  0.10333622  0.16002785  0.32424643     0.26100
C2781       C  0.11568696  0.14731481  0.33657179    -0.11600
C2782       C  0.13759829  0.14680901  0.33433011    -0.25600
C2783       C  0.14660566  0.16145863  0.32067395     0.37000
C2784       C  0.13415731  0.17439302  0.30855499    -0.27300
F2785       F  0.08232691  0.15940826  0.32648596    -0.19400
H2786       H  0.10769312  0.13805951  0.34786323     0.16300
F2787       F  0.16757158  0.16281105  0.31854347    -0.23100
H2788       H  0.14147548  0.18477767  0.29767483     0.18100
C2789       C  0.35384304  0.87823673  0.17085616    -0.27100
C2790       C  0.33842485  0.89164470  0.16332405     0.06500
C2791       C  0.33510499  0.89232194  0.14202646     0.26100
C2792       C  0.34606589  0.87907357  0.12885977    -0.11600
C2793       C  0.36090813  0.86468448  0.13626001    -0.25600
C2794       C  0.36532195  0.86536016  0.15766005     0.36900
C2795       C  0.32661083  0.90555009  0.17757239     0.06500
F2796       F  0.32182929  0.90639799  0.13374903    -0.19400
H2797       H  0.34296296  0.88007444  0.11256494     0.16300
F2798       F  0.38154413  0.85495422  0.16606197    -0.23100
H2799       H  0.35732936  0.87796893  0.18710836     0.18100
C2800       C  0.30485000  0.90788932  0.17590772     0.26100
C2801       C  0.29413434  0.92192550  0.18850930    -0.11600
C2802       C  0.30474391  0.93363433  0.20331250    -0.25600
C2803       C  0.32634178  0.93080452  0.20554665     0.37000
C2804       C  0.33712533  0.91691838  0.19279884    -0.27300
F2805       F  0.29386635  0.89649711  0.16218607    -0.19400
H2806       H  0.27750931  0.92388637  0.18655318     0.16300
F2807       F  0.33707646  0.94199997  0.21962469    -0.23100
H2808       H  0.35383526  0.91549269  0.19445230     0.18100
C2809       C  0.19179164  0.06085368  0.28229436    -0.27100
C2810       C  0.20107756  0.07368251  0.29711284     0.06500
C2811       C  0.22259084  0.07169616  0.30079199     0.26100
C2812       C  0.23440674  0.05692284  0.29013365    -0.11600
C2813       C  0.22502470  0.04390763  0.27559498    -0.25600
C2814       C  0.20362160  0.04604604  0.27167483     0.36900
C2815       C  0.18820006  0.08838402  0.30937701     0.06500
F2816       F  0.23219658  0.08413605  0.31464049    -0.19400
H2817       H  0.25088233  0.05547381  0.29333264     0.16300
F2818       F  0.19415005  0.03355195  0.25778886    -0.23100
H2819       H  0.17524188  0.06192090  0.27934095     0.18100
C2820       C  0.17457828  0.10251093  0.29996617     0.26100
C2821       C  0.16270504  0.11626934  0.31184315    -0.11600
C2822       C  0.16454161  0.11691699  0.33352668    -0.25600
C2823       C  0.17765477  0.10186773  0.34275450     0.37000
C2824       C  0.18930803  0.08803196  0.33084436    -0.27300
F2825       F  0.17299406  0.10332484  0.27920912    -0.19400
H2826       H  0.15200735  0.12616274  0.30368084     0.16300
F2827       F  0.17971043  0.10091395  0.36345042    -0.23100
H2828       H  0.19926882  0.07689764  0.33849115     0.18100
C2829       C  0.36219166  0.08326104  0.16667698    -0.27100
C2830       C  0.34059806  0.08601310  0.16765231     0.06500
C2831       C  0.33155243  0.10267850  0.15709117     0.26100
C2832       C  0.34378990  0.11558825  0.14480632    -0.11600
C2833       C  0.36525005  0.11159739  0.14183576    -0.25600
C2834       C  0.37442658  0.09594447  0.15418933     0.36900
C2835       C  0.32769027  0.07132289  0.17959251     0.06500
F2836       F  0.31086162  0.10661589  0.15881422    -0.19400
H2837       H  0.33618840  0.12865869  0.13765078     0.16300
F2838       F  0.39518262  0.09211324  0.15340857    -0.23100
H2839       H  0.36955495  0.07079042  0.17512791     0.18100
C2840       C  0.31102067  0.06076502  0.17030464     0.26100
C2841       C  0.29941174  0.04636725  0.18153081    -0.11600
C2842       C  0.30447629  0.04207039  0.20202256    -0.25600
C2843       C  0.32105532  0.05260706  0.21132501     0.37000
C2844       C  0.33257312  0.06711121  0.20016929    -0.27300
F2845       F  0.30650993  0.06377154  0.15018094    -0.19400
H2846       H  0.28674700  0.03820185  0.17415659     0.16300
F2847       F  0.32619244  0.04864521  0.23113033    -0.23100
H2848       H  0.34537888  0.07503689  0.20756055     0.18100
C2849       C  0.17428320  0.88016694  0.30230887    -0.27100
C2850       C  0.18898524  0.89212107  0.31282226     0.06500
C2851       C  0.19007158  0.89041781  0.33425557     0.26100
C2852       C  0.17714636  0.87653858  0.34471409    -0.11600
C2853       C  0.16326152  0.86319594  0.33422304    -0.25600
C2854       C  0.16129016  0.86631747  0.31267486     0.36900
C2855       C  0.20200738  0.90723871  0.30132836     0.06500
F2856       F  0.20309346  0.90268437  0.34523052    -0.19400
H2857       H  0.17817083  0.87595082  0.36129198     0.16300
F2858       F  0.14585211  0.85764936  0.30145250    -0.23100
H2859       H  0.17252065  0.88185273  0.28586434     0.18100
C2860       C  0.22372191  0.90830950  0.30414479     0.26100
C2861       C  0.23559717  0.92263202  0.29301011    -0.11600
C2862       C  0.22609585  0.93584246  0.27867325    -0.25600
C2863       C  0.20448032  0.93465531  0.27573411     0.37000
C2864       C  0.19259673  0.92055129  0.28699140    -0.27300
F2865       F  0.23352951  0.89518441  0.31723663    -0.19400
H2866       H  0.25224394  0.92339410  0.29548242     0.16300
F2867       F  0.19486580  0.94731745  0.26206300    -0.23100
H2868       H  0.17592265  0.92014206  0.28461495     0.18100
C2869       C  0.18089570  0.32592545  0.89767888    -0.27100
C2870       C  0.19239189  0.30988502  0.88860124     0.06500
C2871       C  0.19204570  0.30776022  0.86720279     0.26100
C2872       C  0.17945613  0.32075543  0.85528639    -0.11600
C2873       C  0.16681411  0.33632571  0.86427001    -0.25600
C2874       C  0.16887192  0.33945578  0.88577387     0.36900
C2875       C  0.20468062  0.29556456  0.90169171     0.06500
F2876       F  0.20357443  0.29284981  0.85783479    -0.19400
H2877       H  0.17936501  0.31854539  0.83881242     0.16300
F2878       F  0.16067591  0.35621773  0.89542573    -0.23100
H2879       H  0.18176981  0.32838322  0.91410138     0.18100
C2880       C  0.22649160  0.29439559  0.90009627     0.26100
C2881       C  0.23788831  0.28170098  0.91350241    -0.11600
C2882       C  0.22769768  0.26982330  0.92853609    -0.25600
C2883       C  0.20582823  0.27055221  0.92965573     0.37000
C2884       C  0.19449611  0.28344245  0.91648148    -0.27300
F2885       F  0.23679709  0.30617589  0.88615752    -0.19400
H2886       H  0.25471507  0.28151861  0.91252013     0.16300
F2887       F  0.19547748  0.25903414  0.94378142    -0.23100
H2888       H  0.17770157  0.28406103  0.91787004     0.18100
C2889       C  0.35907199  0.16859347  0.09053135    -0.27100
C2890       C  0.34162533  0.15936718  0.08127755     0.06500
C2891       C  0.33683891  0.13878888  0.08666018     0.26100
C2892       C  0.34929349  0.12789840  0.10051305    -0.11600
C2893       C  0.36576395  0.13751479  0.11126043    -0.25600
C2894       C  0.37088119  0.15807854  0.10535097     0.36900
C2895       C  0.32896385  0.17092873  0.06566165     0.06500
F2896       F  0.31978468  0.12915443  0.07898463    -0.19400
H2897       H  0.34552697  0.11181113  0.10341961     0.16300
F2898       F  0.38794360  0.16789867  0.11271207    -0.23100
H2899       H  0.36399470  0.18395038  0.08596467     0.18100
C2900       C  0.32459126  0.19229167  0.06781774     0.26100
C2901       C  0.31298034  0.20285005  0.05289577    -0.11600
C2902       C  0.30477413  0.19233915  0.03583940    -0.25600
C2903       C  0.30873726  0.17095734  0.03388346     0.37000
C2904       C  0.32107989  0.16058959  0.04829116    -0.27300
F2905       F  0.33110142  0.20298912  0.08454234    -0.19400
H2906       H  0.31027023  0.21932792  0.05472511     0.16300
F2907       F  0.30082518  0.16008098  0.01786531    -0.23100
H2908       H  0.32459323  0.14439713  0.04563833     0.18100
C2909       C  0.19264483  0.32799793  0.07347141    -0.27100
C2910       C  0.19175629  0.30649030  0.07614333     0.06500
C2911       C  0.17913182  0.29835107  0.09171586     0.26100
C2912       C  0.16718357  0.31154032  0.10406503    -0.11600
C2913       C  0.16678736  0.33325320  0.10069399    -0.25600
C2914       C  0.18046920  0.34123033  0.08552787     0.36900
C2915       C  0.20398561  0.29274631  0.06247842     0.06500
F2916       F  0.17866999  0.27761730  0.09527509    -0.19400
H2917       H  0.15854018  0.30442069  0.11638659     0.16300
F2918       F  0.18140823  0.36188239  0.08169725    -0.23100
H2919       H  0.20246242  0.33456188  0.06161936     0.18100
C2920       C  0.19403709  0.27787070  0.05014287     0.26100
C2921       C  0.20560677  0.26592945  0.03627997    -0.11600
C2922       C  0.22721096  0.26854283  0.03467065    -0.25600
C2923       C  0.23721354  0.28315762  0.04717794     0.37000
C2924       C  0.22563905  0.29523172  0.06091401    -0.27300
F2925       F  0.17305893  0.27552376  0.05089436    -0.19400
H2926       H  0.19770516  0.25486439  0.02652538     0.16300
F2927       F  0.25805755  0.28613646  0.04561775    -0.23100
H2928       H  0.23352780  0.30668315  0.07023065     0.18100
C2929       C  0.35345389  0.16539079  0.87119977    -0.27100
C2930       C  0.33970054  0.15569442  0.88492327     0.06500
C2931       C  0.33750017  0.13400694  0.88366056     0.26100
C2932       C  0.34799707  0.12273186  0.86848072    -0.11600
C2933       C  0.36143361  0.13242993  0.85420685    -0.25600
C2934       C  0.36489789  0.15400345  0.85681983     0.36900
C2935       C  0.32789606  0.16828627  0.90038812     0.06500
F2936       F  0.32568969  0.12347070  0.89741813    -0.19400
H2937       H  0.34570631  0.10611200  0.86788026     0.16300
F2938       F  0.38009879  0.16430630  0.84666719    -0.23100
H2939       H  0.35565968  0.18200480  0.87162039     0.18100
C2940       C  0.33699819  0.18562343  0.91013413     0.26100
C2941       C  0.32539126  0.19783428  0.92371684    -0.11600
C2942       C  0.30495826  0.19238921  0.92894548    -0.25600
C2943       C  0.29590487  0.17497601  0.91964926     0.37000
C2944       C  0.30709209  0.16336697  0.90520549    -0.27300
F2945       F  0.35732925  0.19045993  0.90720641    -0.19400
H2946       H  0.33262486  0.21119032  0.93080900     0.16300
F2947       F  0.27617885  0.16927386  0.92450927    -0.23100
H2948       H  0.29931704  0.15059796  0.89768277     0.18100
C2949       C  0.59494099  0.70312352  0.67088230    -0.27100
C2950       C  0.59586772  0.68143481  0.67293693     0.06500
C2951       C  0.58213493  0.67156241  0.68664273     0.26100
C2952       C  0.56769794  0.68317811  0.69786910    -0.11600
C2953       C  0.56670570  0.70477258  0.69566976    -0.25600
C2954       C  0.58046058  0.71473451  0.68214048     0.36900
C2955       C  0.61070282  0.66910045  0.66038910     0.06500
F2956       F  0.58218140  0.65061793  0.68866501    -0.19400
H2957       H  0.55707571  0.67531689  0.70816662     0.16300
F2958       F  0.57963306  0.73560915  0.67963217    -0.23100
H2959       H  0.60543541  0.71105532  0.66051763     0.18100
C2960       C  0.61140915  0.67138268  0.63901698     0.26100
C2961       C  0.62452915  0.65885472  0.62723595    -0.11600
C2962       C  0.63786525  0.64393479  0.63627503    -0.25600
C2963       C  0.63665667  0.64153801  0.65793989     0.37000
C2964       C  0.62348824  0.65418580  0.66965445    -0.27300
F2965       F  0.59877619  0.68516488  0.62937722    -0.19400
H2966       H  0.62426084  0.66074561  0.61072583     0.16300
F2967       F  0.64679774  0.62623104  0.66807049    -0.23100
H2968       H  0.62295748  0.65199194  0.68612490     0.18100
C2969       C  0.69533696  0.60969282  0.65653658    -0.27100
C2970       C  0.69300804  0.58818407  0.65518519     0.06500
C2971       C  0.67817939  0.57995895  0.64175966     0.26100
C2972       C  0.66526117  0.59308298  0.63049627    -0.11600
C2973       C  0.66594043  0.61488269  0.63310758    -0.25600
C2974       C  0.68209717  0.62292527  0.64561671     0.36900
C2975       C  0.70499115  0.57429958  0.66875020     0.06500
F2976       F  0.67620012  0.55911888  0.63952243    -0.19400
H2977       H  0.65489961  0.58577745  0.61970356     0.16300
F2978       F  0.68445522  0.64367352  0.64808797    -0.23100
H2979       H  0.70691145  0.61626236  0.66669065     0.18100
C2980       C  0.72678668  0.57284599  0.66743391     0.26100
C2981       C  0.73754052  0.55863237  0.67976641    -0.11600
C2982       C  0.72664682  0.54598293  0.69362735    -0.25600
C2983       C  0.70499026  0.54810064  0.69548240     0.37000
C2984       C  0.69426313  0.56203762  0.68301818    -0.27300
F2985       F  0.73749107  0.58453198  0.65370547    -0.19400
H2986       H  0.75425008  0.55706200  0.67814997     0.16300
F2987       F  0.69422136  0.53626217  0.70902740    -0.23100
H2988       H  0.67749106  0.56318326  0.68436358     0.18100
C2989       C  0.69023993  0.64428517  0.57876996    -0.27100
C2990       C  0.69204787  0.66583949  0.58085772     0.06500
C2991       C  0.68162558  0.67568897  0.59710777     0.26100
C2992       C  0.66882137  0.66436623  0.61030314    -0.11600
C2993       C  0.66560528  0.64284089  0.60750283    -0.25600
C2994       C  0.67758795  0.63286666  0.59206980     0.36900
C2995       C  0.70420711  0.67806127  0.56570726     0.06500
F2996       F  0.68410606  0.69630665  0.60049029    -0.19400
H2997       H  0.66185380  0.67271703  0.62292811     0.16300
F2998       F  0.67646202  0.61203428  0.58932423    -0.23100
H2999       H  0.69826240  0.63627107  0.56646909     0.18100
C3000       C  0.72445547  0.67206566  0.55984227     0.26100
C3001       C  0.73532484  0.68344147  0.54502247    -0.11600
C3002       C  0.72617987  0.70086828  0.53582639    -0.25600
C3003       C  0.70612557  0.70703775  0.54179167     0.37000
C3004       C  0.69523870  0.69569330  0.55657286    -0.27300
F3005       F  0.73383490  0.65542555  0.56863580    -0.19400
H3006       H  0.75085701  0.67862333  0.54060034     0.16300
F3007       F  0.69707778  0.72396504  0.53320849    -0.23100
H3008       H  0.67960165  0.70048453  0.56064190     0.18100
C3009       C  0.42497218  0.33297562  0.64832795    -0.27100
C3010       C  0.41554387  0.31743555  0.66010122     0.06500
C3011       C  0.39378808  0.31613006  0.66048708     0.26100
C3012       C  0.38180407  0.32960017  0.64856767    -0.11600
C3013       C  0.39110482  0.34433013  0.63531634    -0.25600
C3014       C  0.41306285  0.34658278  0.63645124     0.36900
C3015       C  0.42860110  0.30297894  0.67219505     0.06500
F3016       F  0.38411773  0.30134486  0.67181624    -0.19400
H3017       H  0.36504330  0.32791418  0.64894893     0.16300
F3018       F  0.42328302  0.36238555  0.62719505    -0.23100
H3019       H  0.44172192  0.33485167  0.64866733     0.18100
C3020       C  0.44466770  0.29169896  0.66264952     0.26100
C3021       C  0.45768106  0.27895237  0.67426018    -0.11600
C3022       C  0.45499977  0.27727724  0.69555811    -0.25600
C3023       C  0.43872176  0.28822454  0.70512331     0.37000
C3024       C  0.42557084  0.30092155  0.69346343    -0.27300
F3025       F  0.44774299  0.29297676  0.64207752    -0.19400
H3026       H  0.47012071  0.27053992  0.66668009     0.16300
F3027       F  0.43595142  0.28708597  0.72573820    -0.23100
H3028       H  0.41337999  0.30961918  0.70110836     0.18100
C3029       C  0.36371996  0.39851452  0.66357403    -0.27100
C3030       C  0.34244157  0.39541309  0.66721601     0.06500
C3031       C  0.33235238  0.37914258  0.65690720     0.26100
C3032       C  0.34306510  0.36706193  0.64249866    -0.11600
C3033       C  0.36418275  0.37091486  0.63769812    -0.25600
C3034       C  0.37459010  0.38610315  0.64961380     0.36900
C3035       C  0.33081256  0.40949966  0.68129378     0.06500
F3036       F  0.31217909  0.37455448  0.66108957    -0.19400
H3037       H  0.33469859  0.35436108  0.63556949     0.16300
F3038       F  0.39526499  0.38959769  0.64716376    -0.23100
H3039       H  0.37198604  0.41087061  0.67128673     0.18100
C3040       C  0.33927788  0.41577207  0.70026384     0.26100
C3041       C  0.32867253  0.43006418  0.71262738    -0.11600
C3042       C  0.30932957  0.43800250  0.70652741    -0.25600
C3043       C  0.30053195  0.43133684  0.68798943     0.37000
C3044       C  0.31130121  0.41743107  0.67539261    -0.27300
F3045       F  0.35764729  0.40791757  0.70700339    -0.19400
H3046       H  0.33552771  0.43497032  0.72700211     0.16300
F3047       F  0.28172226  0.43869170  0.68189325    -0.23100
H3048       H  0.30453942  0.41319570  0.66077874     0.18100
C3049       C  0.35227632  0.31202763  0.59049357    -0.27100
C3050       C  0.33594873  0.32197877  0.58020433     0.06500
C3051       C  0.33273657  0.34324617  0.58368771     0.26100
C3052       C  0.34574345  0.35417729  0.59705788    -0.11600
C3053       C  0.36200741  0.34425568  0.60793114    -0.25600
C3054       C  0.36544960  0.32288645  0.60366464     0.36900
C3055       C  0.32316056  0.31021009  0.56514812     0.06500
F3056       F  0.31754818  0.35371296  0.57357497    -0.19400
H3057       H  0.34314442  0.37066625  0.59894217     0.16300
F3058       F  0.38233119  0.31244349  0.61067157    -0.23100
H3059       H  0.35523060  0.29568722  0.58796057     0.18100
C3060       C  0.33273875  0.29707683  0.55061817     0.26100
C3061       C  0.32072590  0.28591454  0.53662910    -0.11600
C3062       C  0.29899058  0.28781200  0.53654602    -0.25600
C3063       C  0.28931972  0.30093669  0.55092255     0.37000
C3064       C  0.30132192  0.31192199  0.56517935    -0.27300
F3065       F  0.35377934  0.29551521  0.54945264    -0.19400
H3066       H  0.32841614  0.27602201  0.52550706     0.16300
F3067       F  0.26832679  0.30330659  0.55096580    -0.23100
H3068       H  0.29353462  0.32172122  0.57630257     0.18100
C3069       C  0.68341621  0.37230639  0.30403278    -0.27100
C3070       C  0.68110521  0.39390945  0.30338730     0.06500
C3071       C  0.66714027  0.40341677  0.31703711     0.26100
C3072       C  0.65617340  0.39162702  0.33133269    -0.11600
C3073       C  0.65964937  0.37003358  0.33346406    -0.25600
C3074       C  0.67284381  0.36049497  0.31871904     0.36900
C3075       C  0.69384219  0.40668016  0.28919906     0.06500
F3076       F  0.66453293  0.42431782  0.31707872    -0.19400
H3077       H  0.64493944  0.39987485  0.34054411     0.16300
F3078       F  0.67601919  0.33969460  0.31885709    -0.23100
H3079       H  0.69366728  0.36454715  0.29327258     0.18100
C3080       C  0.71562555  0.40431754  0.28844926     0.26100
C3081       C  0.72777680  0.41823700  0.27717594    -0.11600
C3082       C  0.71841255  0.43465249  0.26649101    -0.25600
C3083       C  0.69663471  0.43642109  0.26637031     0.37000
C3084       C  0.68447227  0.42249151  0.27756518    -0.27300
F3085       F  0.72525783  0.38932495  0.29956346    -0.19400
H3086       H  0.74456445  0.41668040  0.27735719     0.16300
F3087       F  0.68721864  0.45194087  0.25579304    -0.23100
H3088       H  0.66771605  0.42435837  0.27755730     0.18100
C3089       C  0.69665246  0.33507245  0.37906887    -0.27100
C3090       C  0.68717509  0.32178675  0.39333714     0.06500
C3091       C  0.66534296  0.32150679  0.39443967     0.26100
C3092       C  0.65344088  0.33286914  0.38049215    -0.11600
C3093       C  0.66273612  0.34517347  0.36501045    -0.25600
C3094       C  0.68476677  0.34704583  0.36547712     0.36900
C3095       C  0.70009252  0.30864212  0.40723092     0.06500
F3096       F  0.65539023  0.31052890  0.40924738    -0.19400
H3097       H  0.63665588  0.33172040  0.38149167     0.16300
F3098       F  0.69518007  0.36084422  0.35366584    -0.23100
H3099       H  0.71345117  0.33623594  0.37839831     0.18100
C3100       C  0.69508159  0.28765132  0.41073203     0.26100
C3101       C  0.70682742  0.27571598  0.42440967    -0.11600
C3102       C  0.72413422  0.28420458  0.43439959    -0.25600
C3103       C  0.72976598  0.30482920  0.43029223     0.37000
C3104       C  0.71773482  0.31696419  0.41698697    -0.27300
F3105       F  0.67912593  0.27848132  0.40059069    -0.19400
H3106       H  0.70249089  0.25973670  0.42717375     0.16300
F3107       F  0.74667255  0.31330649  0.43948149    -0.23100
H3108       H  0.72205114  0.33299588  0.41455289     0.18100
C3109       C  0.62604881  0.30663033  0.32349237    -0.27100
C3110       C  0.61068270  0.31504020  0.31077527     0.06500
C3111       C  0.60794731  0.33661551  0.31034161     0.26100
C3112       C  0.62005856  0.34937916  0.32284023    -0.11600
C3113       C  0.63497858  0.34112298  0.33657897    -0.25600
C3114       C  0.63835852  0.31930361  0.33588683     0.36900
C3115       C  0.59719906  0.30105995  0.29860353     0.06500
F3116       F  0.59309972  0.34537399  0.29833517    -0.19400
H3117       H  0.61749909  0.36596892  0.32212834     0.16300
F3118       F  0.65424868  0.30988802  0.34588444    -0.23100
H3119       H  0.62884759  0.29005677  0.32350337     0.18100
C3120       C  0.59418214  0.30406218  0.27741468     0.26100
C3121       C  0.58056831  0.29121858  0.26653140    -0.11600
C3122       C  0.56988650  0.27523854  0.27660283    -0.25600
C3123       C  0.57336373  0.27180406  0.29756325     0.37000
C3124       C  0.58697197  0.28457938  0.30843714    -0.27300
F3125       F  0.60447633  0.31927932  0.26724148    -0.19400
H3126       H  0.57802909  0.29394220  0.25032933     0.16300
F3127       F  0.56322655  0.25636583  0.30755613    -0.23100
H3128       H  0.58912198  0.28194923  0.32471196     0.18100
C3129       C  0.41040950  0.66618177  0.32565777    -0.27100
C3130       C  0.41349660  0.66228232  0.30473190     0.06500
C3131       C  0.40285048  0.64569057  0.29562505     0.26100
C3132       C  0.38917305  0.63352134  0.30720070    -0.11600
C3133       C  0.38507490  0.63785081  0.32816650    -0.25600
C3134       C  0.39669740  0.65411429  0.33726467     0.36900
C3135       C  0.42823034  0.67527363  0.29272351     0.06500
F3136       F  0.40558995  0.64122802  0.27543865    -0.19400
H3137       H  0.38243215  0.62028863  0.29957256     0.16300
F3138       F  0.39500021  0.65835899  0.35756859    -0.23100
H3139       H  0.41897211  0.67846291  0.33318714     0.18100
C3140       C  0.42678182  0.69706713  0.29312011     0.26100
C3141       C  0.44094392  0.70919994  0.28204430    -0.11600
C3142       C  0.45684722  0.69981842  0.27052306    -0.25600
C3143       C  0.45835978  0.67807784  0.27015296     0.37000
C3144       C  0.44413975  0.66594365  0.28110226    -0.27300
F3145       F  0.41147740  0.70660072  0.30399419    -0.19400
H3146       H  0.43960498  0.72593582  0.28252306     0.16300
F3147       F  0.47366757  0.66863270  0.25919861    -0.23100
H3148       H  0.44575896  0.64922856  0.28077716     0.18100
C3149       C  0.32904715  0.63560500  0.38255414    -0.27100
C3150       C  0.32621222  0.65706013  0.38068183     0.06500
C3151       C  0.33629260  0.66746152  0.36451062     0.26100
C3152       C  0.35005021  0.65682482  0.35150660    -0.11600
C3153       C  0.35449466  0.63557442  0.35451840    -0.25600
C3154       C  0.34247229  0.62490761  0.36941778     0.36900
C3155       C  0.31376719  0.66851969  0.39633175     0.06500
F3156       F  0.33280113  0.68795356  0.36121519    -0.19400
H3157       H  0.35718794  0.66544436  0.33916273     0.16300
F3158       F  0.34488619  0.60425069  0.37245166    -0.23100
H3159       H  0.32150370  0.62710972  0.39479890     0.18100
C3160       C  0.29457095  0.66082949  0.40356500     0.26100
C3161       C  0.28395387  0.67101935  0.41942003    -0.11600
C3162       C  0.29206349  0.68918031  0.42810146    -0.25600
C3163       C  0.31094355  0.69713048  0.42064729     0.37000
C3164       C  0.32176659  0.68676659  0.40509349    -0.27300
F3165       F  0.28594174  0.64361135  0.39518462    -0.19400
H3166       H  0.26932114  0.66480316  0.42491280     0.16300
F3167       F  0.31913202  0.71468072  0.42879366    -0.23100
H3168       H  0.33668504  0.69279686  0.40020201     0.18100
C3169       C  0.34514595  0.57443522  0.31769075    -0.27100
C3170       C  0.33435231  0.58317805  0.30121343     0.06500
C3171       C  0.33381833  0.60477154  0.29909921     0.26100
C3172       C  0.34488179  0.61730241  0.31278706    -0.11600
C3173       C  0.35760635  0.60862688  0.32833065    -0.25600
C3174       C  0.35623381  0.58684385  0.33139222     0.36900
C3175       C  0.32420017  0.56938473  0.28618380     0.06500
F3176       F  0.32335372  0.61368262  0.28331090    -0.19400
H3177       H  0.34442648  0.63394284  0.31059735     0.16300
F3178       F  0.36456644  0.57726147  0.34797010    -0.23100
H3179       H  0.34487052  0.55780297  0.32002202     0.18100
C3180       C  0.30242384  0.56853846  0.28444745     0.26100
C3181       C  0.29316341  0.55387081  0.27151095    -0.11600
C3182       C  0.30553411  0.54004477  0.26009050    -0.25600
C3183       C  0.32729580  0.54148068  0.26127812     0.37000
C3184       C  0.33651719  0.55593064  0.27435789    -0.27300
F3185       F  0.29018202  0.58128119  0.29586426    -0.19400
H3186       H  0.27635289  0.55295552  0.27071259     0.16300
F3187       F  0.33957095  0.52868900  0.24995890    -0.23100
H3188       H  0.35332798  0.55649910  0.27546930     0.18100
C3189       C  0.69101967  0.64459348  0.38551646    -0.27100
C3190       C  0.69104071  0.66623325  0.38449008     0.06500
C3191       C  0.67905078  0.67617355  0.36950166     0.26100
C3192       C  0.66679414  0.66458222  0.35601175    -0.11600
C3193       C  0.66500155  0.64278672  0.35805921    -0.25600
C3194       C  0.67819677  0.63297147  0.37261405     0.36900
C3195       C  0.70329415  0.67831975  0.39941571     0.06500
F3196       F  0.67926374  0.69715620  0.36787474    -0.19400
H3197       H  0.65874482  0.67302851  0.34414942     0.16300
F3198       F  0.67800466  0.61209081  0.37508885    -0.23100
H3199       H  0.70043423  0.63669416  0.39687386     0.18100
C3200       C  0.69323055  0.69056159  0.41426307     0.26100
C3201       C  0.70487237  0.70134433  0.42886214    -0.11600
C3202       C  0.72668783  0.70011901  0.42882402    -0.25600
C3203       C  0.73676501  0.68805958  0.41379346     0.37000
C3204       C  0.72509548  0.67714323  0.39927757    -0.27300
F3205       F  0.67214049  0.69164332  0.41493329    -0.19400
H3206       H  0.69689272  0.71057913  0.44033261     0.16300
F3207       F  0.75784715  0.68675812  0.41328423    -0.23100
H3208       H  0.73303666  0.66776429  0.38789805     0.18100
C3209       C  0.62031193  0.65154217  0.29702903    -0.27100
C3210       C  0.60828576  0.66730395  0.30597629     0.06500
C3211       C  0.60945660  0.67025326  0.32725810     0.26100
C3212       C  0.62279796  0.65807351  0.33913248    -0.11600
C3213       C  0.63592874  0.64281435  0.33029702    -0.25600
C3214       C  0.63363312  0.63918687  0.30887758     0.36900
C3215       C  0.59352665  0.67961306  0.29328044     0.06500
F3216       F  0.59704495  0.68435075  0.33677631    -0.19400
H3217       H  0.62293614  0.66061062  0.35555610     0.16300
F3218       F  0.64280511  0.62295692  0.29922441    -0.23100
H3219       H  0.61907432  0.64847514  0.28073289     0.18100
C3220       C  0.59290798  0.70142778  0.29445847     0.26100
C3221       C  0.57827216  0.71267322  0.28306442    -0.11600
C3222       C  0.56410947  0.70238975  0.27028130    -0.25600
C3223       C  0.56495980  0.68068355  0.26874765     0.37000
C3224       C  0.57957814  0.66943149  0.28010531    -0.27300
F3225       F  0.60661470  0.71188164  0.30641503    -0.19400
H3226       H  0.57785583  0.72941679  0.28429755     0.16300
F3227       F  0.55154808  0.67040411  0.25631750    -0.23100
H3228       H  0.57972092  0.65267929  0.27893744     0.18100
C3229       C  0.69174841  0.60709314  0.30822922    -0.27100
C3230       C  0.68959086  0.58562479  0.31100167     0.06500
C3231       C  0.67605163  0.57841769  0.32626468     0.26100
C3232       C  0.66384795  0.59226153  0.33745142    -0.11600
C3233       C  0.66411737  0.61384693  0.33339977    -0.25600
C3234       C  0.67944140  0.62106822  0.31945582     0.36900
C3235       C  0.70138627  0.57070400  0.29808845     0.06500
F3236       F  0.67491648  0.55788894  0.33074395    -0.19400
H3237       H  0.65464663  0.58567897  0.34965776     0.16300
F3238       F  0.68192878  0.64168027  0.31608670    -0.23100
H3239       H  0.70260899  0.61304941  0.29696847     0.18100
C3240       C  0.69109216  0.55414684  0.28836716     0.26100
C3241       C  0.70227509  0.53979962  0.27668771    -0.11600
C3242       C  0.72393235  0.54150963  0.27454400    -0.25600
C3243       C  0.73425530  0.55815810  0.28409196     0.37000
C3244       C  0.72300930  0.57270431  0.29561786    -0.27300
F3245       F  0.67012893  0.55201869  0.28985724    -0.19400
H3246       H  0.69400418  0.52726856  0.26923641     0.16300
F3247       F  0.75520542  0.56023926  0.28240186    -0.23100
H3248       H  0.73124532  0.58529960  0.30298839     0.18100
C3249       C  0.36042758  0.40338345  0.31106847    -0.27100
C3250       C  0.34692609  0.39324733  0.29758737     0.06500
C3251       C  0.34503920  0.37165622  0.29876526     0.26100
C3252       C  0.35562104  0.36063486  0.31396989    -0.11600
C3253       C  0.36842652  0.37072429  0.32858247    -0.25600
C3254       C  0.37147790  0.39242899  0.32597295     0.36900
C3255       C  0.33500591  0.40551980  0.28242047     0.06500
F3256       F  0.33331875  0.36114845  0.28494272    -0.19400
H3257       H  0.35365294  0.34397046  0.31454413     0.16300
F3258       F  0.38601435  0.40329138  0.33644252    -0.23100
H3259       H  0.36264238  0.41999216  0.30989686     0.18100
C3260       C  0.31316812  0.40419862  0.28151557     0.26100
C3261       C  0.30192136  0.41763084  0.26883511    -0.11600
C3262       C  0.31228497  0.43247948  0.25689795    -0.25600
C3263       C  0.33411334  0.43323715  0.25714069     0.37000
C3264       C  0.34535765  0.41990481  0.26987504    -0.27300
F3265       F  0.30266206  0.39076371  0.29373866    -0.19400
H3266       H  0.28507752  0.41695884  0.26882861     0.16300
F3267       F  0.34446120  0.44722572  0.24540912    -0.23100
H3268       H  0.36217045  0.42105407  0.27025314     0.18100
C3269       C  0.33018713  0.33577719  0.37250206    -0.27100
C3270       C  0.33889743  0.32241453  0.38718063     0.06500
C3271       C  0.36075091  0.32103270  0.38819323     0.26100
C3272       C  0.37325332  0.33184659  0.37425453    -0.11600
C3273       C  0.36468241  0.34503292  0.35910313    -0.25600
C3274       C  0.34268862  0.34764693  0.35940748     0.36900
C3275       C  0.32525923  0.31036248  0.40156408     0.06500
F3276       F  0.37022698  0.30975873  0.40308250    -0.19400
H3277       H  0.38997439  0.33005377  0.37539969     0.16300
F3278       F  0.33282105  0.36231592  0.34815997    -0.23100
H3279       H  0.31347931  0.33738160  0.37121376     0.18100
C3280       C  0.30690562  0.31902263  0.41002894     0.26100
C3281       C  0.29463654  0.30757888  0.42370808    -0.11600
C3282       C  0.30064825  0.28760018  0.42977898    -0.25600
C3283       C  0.31877332  0.27885540  0.42141396     0.37000
C3284       C  0.33066929  0.28994332  0.40717041    -0.27300
F3285       F  0.30116383  0.33883433  0.40587349    -0.19400
H3286       H  0.28074032  0.31457038  0.43014847     0.16300
F3287       F  0.32505370  0.25962968  0.42721754    -0.23100
H3288       H  0.34420698  0.28247074  0.40057141     0.18100
C3289       C  0.41990950  0.33730891  0.30443453    -0.27100
C3290       C  0.41761780  0.31579409  0.30547538     0.06500
C3291       C  0.40236560  0.30737662  0.31837898     0.26100
C3292       C  0.39005880  0.32029678  0.33065443    -0.11600
C3293       C  0.39315800  0.34201920  0.33095920    -0.25600
C3294       C  0.40786049  0.35029446  0.31684941     0.36900
C3295       C  0.43227906  0.30218436  0.29432413     0.06500
F3296       F  0.39931283  0.28656798  0.31901611    -0.19400
H3297       H  0.37807409  0.31296866  0.33969079     0.16300
F3298       F  0.41130966  0.37101870  0.31576171    -0.23100
H3299       H  0.43161028  0.34404854  0.29449542     0.18100
C3300       C  0.43371689  0.30258044  0.27279904     0.26100
C3301       C  0.44847729  0.29021618  0.26272612    -0.11600
C3302       C  0.46203321  0.27751921  0.27403064    -0.25600
C3303       C  0.46047486  0.27705708  0.29550552     0.37000
C3304       C  0.44564924  0.28924977  0.30553533    -0.27300
F3305       F  0.42076982  0.31476062  0.26159094    -0.19400
H3306       H  0.44950957  0.29065383  0.24614191     0.16300
F3307       F  0.47339240  0.26486603  0.30672975    -0.23100
H3308       H  0.44483205  0.28891492  0.32213610     0.18100
C3309       C  0.66228517  0.39705115  0.65533951    -0.27100
C3310       C  0.68407335  0.39639997  0.65420014     0.06500
C3311       C  0.69335054  0.38147188  0.64134976     0.26100
C3312       C  0.68110534  0.36765340  0.63002867    -0.11600
C3313       C  0.65915361  0.36720988  0.63205443    -0.25600
C3314       C  0.65003613  0.38284955  0.64456270     0.36900
C3315       C  0.69680353  0.41094469  0.66688094     0.06500
F3316       F  0.71436245  0.37964124  0.64015192    -0.19400
H3317       H  0.68928673  0.35741213  0.61972717     0.16300
F3318       F  0.62907896  0.38426470  0.64674713    -0.23100
H3319       H  0.65459889  0.40862926  0.66472737     0.18100
C3320       C  0.71447844  0.42102043  0.65880507     0.26100
C3321       C  0.72648330  0.43404208  0.67119792    -0.11600
C3322       C  0.72055186  0.43826752  0.69150113    -0.25600
C3323       C  0.70266437  0.42873885  0.69949547     0.37000
C3324       C  0.69110068  0.41502593  0.68738359    -0.27300
F3325       F  0.71967873  0.41912611  0.63870751    -0.19400
H3326       H  0.74004843  0.44154592  0.66470719     0.16300
F3327       F  0.69633247  0.43281258  0.71896777    -0.23100
H3328       H  0.67762895  0.40756222  0.69408553     0.18100
C3329       C  0.60757448  0.30847712  0.63853002    -0.27100
C3330       C  0.60591774  0.31204802  0.65975562     0.06500
C3331       C  0.61883110  0.32741236  0.66838928     0.26100
C3332       C  0.63247107  0.33890634  0.65607392    -0.11600
C3333       C  0.63231034  0.33710713  0.63444343    -0.25600
C3334       C  0.61981467  0.32113982  0.62601183     0.36900
C3335       C  0.59046663  0.30005991  0.67240921     0.06500
F3336       F  0.61776008  0.33223470  0.68862313    -0.19400
H3337       H  0.64252734  0.34967624  0.66386252     0.16300
F3338       F  0.61874606  0.31816239  0.60543336    -0.23100
H3339       H  0.59898640  0.29606934  0.63130127     0.18100
C3340       C  0.57114619  0.29384165  0.66408196     0.26100
C3341       C  0.55725590  0.28194303  0.67561817    -0.11600
C3342       C  0.56140249  0.27700325  0.69618591    -0.25600
C3343       C  0.57993646  0.28434314  0.70502329     0.37000
C3344       C  0.59462893  0.29488165  0.69303850    -0.27300
F3345       F  0.56517155  0.29973713  0.64499221    -0.19400
H3346       H  0.54288457  0.27689233  0.66854189     0.16300
F3347       F  0.58387902  0.28132687  0.72526038    -0.23100
H3348       H  0.60930657  0.29884119  0.70007636     0.18100
C3349       C  0.71646893  0.29745353  0.56834895    -0.27100
C3350       C  0.69477099  0.29484659  0.56819193     0.06500
C3351       C  0.68598116  0.28037713  0.55455101     0.26100
C3352       C  0.69866768  0.26940215  0.54079774    -0.11600
C3353       C  0.72026658  0.27264205  0.54046445    -0.25600
C3354       C  0.72912524  0.28654802  0.55453341     0.36900
C3355       C  0.68145625  0.30833885  0.58126049     0.06500
F3356       F  0.66512091  0.27709108  0.55434486    -0.19400
H3357       H  0.69161024  0.25878701  0.52998011     0.16300
F3358       F  0.74988570  0.29034934  0.55415099    -0.23100
H3359       H  0.72351737  0.30862183  0.57861095     0.18100
C3360       C  0.66651363  0.32137430  0.57236184     0.26100
C3361       C  0.65488039  0.33503264  0.58448732    -0.11600
C3362       C  0.65804107  0.33661507  0.60597840    -0.25600
C3363       C  0.67234643  0.32240342  0.61483999     0.37000
C3364       C  0.68415367  0.30888443  0.60258723    -0.27300
F3365       F  0.66341299  0.32124612  0.55175675    -0.19400
H3366       H  0.64302283  0.34384651  0.57668507     0.16300
F3367       F  0.67523207  0.32188683  0.63546160    -0.23100
H3368       H  0.69540726  0.29871349  0.60979548     0.18100
C3369       C  0.57307602  0.58939769  0.56513250    -0.27100
C3370       C  0.59044582  0.58091782  0.57501837     0.06500
C3371       C  0.59519108  0.55983187  0.57234615     0.26100
C3372       C  0.58325972  0.54766753  0.55906729    -0.11600
C3373       C  0.56623366  0.55628340  0.54855305    -0.25600
C3374       C  0.56088394  0.57718600  0.55217238     0.36900
C3375       C  0.60443884  0.59443974  0.58688435     0.06500
F3376       F  0.61191759  0.55128294  0.58185155    -0.19400
H3377       H  0.58762151  0.53161667  0.55667086     0.16300
F3378       F  0.54443814  0.58614310  0.54257085    -0.23100
H3379       H  0.56922268  0.60563213  0.56715951     0.18100
C3380       C  0.61662712  0.60928428  0.57684422     0.26100
C3381       C  0.63104678  0.62105067  0.58781404    -0.11600
C3382       C  0.63409743  0.61795238  0.60910368    -0.25600
C3383       C  0.62008492  0.60435373  0.61926052     0.37000
C3384       C  0.60591111  0.59237764  0.60816615    -0.27300
F3385       F  0.61490999  0.61206576  0.55626753    -0.19400
H3386       H  0.63962156  0.63260460  0.57934936     0.16300
F3387       F  0.62075550  0.60189789  0.63992492    -0.23100
H3388       H  0.59611868  0.58137902  0.61618748     0.18100
C3389       C  0.41558424  0.42519954  0.55245022    -0.27100
C3390       C  0.42460351  0.40971209  0.56470103     0.06500
C3391       C  0.44640151  0.40748347  0.56478663     0.26100
C3392       C  0.45883481  0.42069285  0.55298838    -0.11600
C3393       C  0.44979818  0.43639176  0.54100694    -0.25600
C3394       C  0.42799475  0.43849795  0.54079694     0.36900
C3395       C  0.41127189  0.39649956  0.57789858     0.06500
F3396       F  0.45571831  0.39289038  0.57665955    -0.19400
H3397       H  0.47557751  0.41871570  0.55331238     0.16300
F3398       F  0.41856254  0.45295916  0.52886117    -0.23100
H3399       H  0.39882734  0.42693247  0.55181076     0.18100
C3400       C  0.39622517  0.40544537  0.59078725     0.26100
C3401       C  0.38458067  0.39311637  0.60410791    -0.11600
C3402       C  0.38830854  0.37155530  0.60586310    -0.25600
C3403       C  0.40212598  0.36252646  0.59136423     0.37000
C3404       C  0.41362909  0.37489699  0.57787489    -0.27300
F3405       F  0.39319355  0.42628172  0.59103609    -0.19400
H3406       H  0.37269355  0.40081293  0.61303289     0.16300
F3407       F  0.40536748  0.34175330  0.59088545    -0.23100
H3408       H  0.42458098  0.36756865  0.56749114     0.18100
C3409       C  0.57812067  0.41898651  0.39485581    -0.27100
C3410       C  0.59646490  0.41007953  0.40272314     0.06500
C3411       C  0.60269412  0.41510449  0.42282372     0.26100
C3412       C  0.59107814  0.42909286  0.43452330    -0.11600
C3413       C  0.57278584  0.43779222  0.42666157    -0.25600
C3414       C  0.56616199  0.43250304  0.40686310     0.36900
C3415       C  0.60922634  0.39592756  0.38984835     0.06500
F3416       F  0.61960060  0.40595660  0.43143023    -0.19400
H3417       H  0.59598481  0.43261844  0.45003427     0.16300
F3418       F  0.54830662  0.44058909  0.39911073    -0.23100
H3419       H  0.57310591  0.41555648  0.37936890     0.18100
C3420       C  0.60006109  0.37974555  0.37866773     0.26100
C3421       C  0.61223567  0.36695764  0.36613068    -0.11600
C3422       C  0.63391764  0.37021611  0.36392107    -0.25600
C3423       C  0.64307798  0.38563192  0.37651112     0.37000
C3424       C  0.63084584  0.39852941  0.38879892    -0.27300
F3425       F  0.57936263  0.37586868  0.38029771    -0.19400
H3426       H  0.60441265  0.35426019  0.35864142     0.16300
F3427       F  0.66395815  0.38879158  0.37632166    -0.23100
H3428       H  0.63834695  0.41082783  0.39733035     0.18100
C3429       C  0.42791629  0.55593055  0.39395183    -0.27100
C3430       C  0.43111628  0.57732125  0.39182921     0.06500
C3431       C  0.44679228  0.58696871  0.40337307     0.26100
C3432       C  0.45885965  0.57539343  0.41705964    -0.11600
C3433       C  0.45518394  0.55410569  0.41981866    -0.25600
C3434       C  0.43968509  0.54439800  0.40795257     0.36900
C3435       C  0.41689365  0.58975181  0.37893996     0.06500
F3436       F  0.45017922  0.60766163  0.40162742    -0.19400
H3437       H  0.47060956  0.58326845  0.42603283     0.16300
F3438       F  0.43563571  0.52386468  0.41007966    -0.23100
H3439       H  0.41574492  0.54831305  0.38529905     0.18100
C3440       C  0.41513489  0.58622843  0.35780654     0.26100
C3441       C  0.40093728  0.59771501  0.34616352    -0.11600
C3442       C  0.38708610  0.61203124  0.35546625    -0.25600
C3443       C  0.39026750  0.61645883  0.37662569     0.37000
C3444       C  0.40474591  0.60522121  0.38806129    -0.27300
F3445       F  0.42723591  0.57178629  0.34841192    -0.19400
H3446       H  0.40008509  0.59478232  0.32982515     0.16300
F3447       F  0.38043517  0.63224293  0.38641244    -0.23100
H3448       H  0.40642977  0.60858038  0.40426495     0.18100
C3449       C  0.57499746  0.58856885  0.40502164    -0.27100
C3450       C  0.59247353  0.58022527  0.39519026     0.06500
C3451       C  0.59828638  0.55960001  0.39914270     0.26100
C3452       C  0.58705314  0.54773692  0.41336220    -0.11600
C3453       C  0.56968143  0.55619464  0.42353990    -0.25600
C3454       C  0.56355059  0.57668688  0.41890636     0.36900
C3455       C  0.60555709  0.59372790  0.38227601     0.06500
F3456       F  0.61526361  0.55124794  0.38983547    -0.19400
H3457       H  0.59206823  0.53202973  0.41656883     0.16300
F3458       F  0.54690247  0.58560259  0.42825768    -0.23100
H3459       H  0.57041538  0.60448204  0.40215461     0.18100
C3460       C  0.60668748  0.59103550  0.36100366     0.26100
C3461       C  0.61993834  0.60350988  0.34931632    -0.11600
C3462       C  0.63344616  0.61804492  0.35868567    -0.25600
C3463       C  0.63027443  0.62210427  0.37990219     0.37000
C3464       C  0.61675807  0.60980918  0.39144136    -0.27300
F3465       F  0.59505891  0.57631522  0.35156639    -0.19400
H3466       H  0.62063759  0.60095581  0.33290349     0.16300
F3467       F  0.63920310  0.63839216  0.38962441    -0.23100
H3468       H  0.61510104  0.61278155  0.40772778     0.18100
C3469       C  0.42812078  0.43114443  0.39779790    -0.27100
C3470       C  0.43038603  0.40949764  0.39908851     0.06500
C3471       C  0.44528395  0.40117617  0.41257900     0.26100
C3472       C  0.45754981  0.41425384  0.42454436    -0.11600
C3473       C  0.45503667  0.43584537  0.42355254    -0.25600
C3474       C  0.44028415  0.44425601  0.40998174     0.36900
C3475       C  0.41759767  0.39564877  0.38605329     0.06500
F3476       F  0.44754232  0.38035581  0.41469467    -0.19400
H3477       H  0.46862503  0.40740585  0.43507851     0.16300
F3478       F  0.43783543  0.46509649  0.40829124    -0.23100
H3479       H  0.41702258  0.43789134  0.38722602     0.18100
C3480       C  0.39585812  0.39758755  0.38526398     0.26100
C3481       C  0.38419954  0.38463205  0.37246920    -0.11600
C3482       C  0.39388837  0.36979671  0.35956007    -0.25600
C3483       C  0.41563159  0.36661969  0.36229701     0.37000
C3484       C  0.42721180  0.37986697  0.37473447    -0.27300
F3485       F  0.38585271  0.41183444  0.39704454    -0.19400
H3486       H  0.36747832  0.38672856  0.37195863     0.16300
F3487       F  0.42595869  0.35022820  0.35414360    -0.23100
H3488       H  0.44389266  0.37759184  0.37567004     0.18100
C3489       C  0.59679563  0.38191566  0.59836560    -0.27100
C3490       C  0.60609456  0.39428434  0.58326193     0.06500
C3491       C  0.62773157  0.39293453  0.58047041     0.26100
C3492       C  0.63963261  0.37943246  0.59246220    -0.11600
C3493       C  0.63039698  0.36596601  0.60698438    -0.25600
C3494       C  0.60855130  0.36808315  0.61016342     0.36900
C3495       C  0.59319204  0.40873186  0.57073904     0.06500
F3496       F  0.63740714  0.40432188  0.56579151    -0.19400
H3497       H  0.65631685  0.37907617  0.59006192     0.16300
F3498       F  0.59834577  0.35823306  0.62552485    -0.23100
H3499       H  0.58028811  0.38334955  0.60146872     0.18100
C3500       C  0.57448177  0.40205980  0.56170021     0.26100
C3501       C  0.56285011  0.41555620  0.54942159    -0.11600
C3502       C  0.56959125  0.43595792  0.54573211    -0.25600
C3503       C  0.58802384  0.44280419  0.55517673     0.37000
C3504       C  0.59959641  0.42933185  0.56759947    -0.27300
F3505       F  0.56778910  0.38224998  0.56407270    -0.19400
H3506       H  0.54875625  0.40979192  0.54235869     0.16300
F3507       F  0.59498283  0.46244624  0.55236869    -0.23100
H3508       H  0.61364565  0.43503802  0.57478978     0.18100
C3509       C  0.39484837  0.67117125  0.66213489    -0.27100
C3510       C  0.41631887  0.66733831  0.66247938     0.06500
C3511       C  0.42431459  0.65026345  0.65177723     0.26100
C3512       C  0.41113122  0.63741619  0.64069651    -0.11600
C3513       C  0.38950429  0.64147903  0.63933820    -0.25600
C3514       C  0.38150968  0.65818882  0.65109059     0.36900
C3515       C  0.43036914  0.68046212  0.67475916     0.06500
F3516       F  0.44500165  0.64590664  0.65205901    -0.19400
H3517       H  0.41815392  0.62387313  0.63381336     0.16300
F3518       F  0.36073265  0.66196852  0.65185007    -0.23100
H3519       H  0.38835828  0.68396287  0.67083213     0.18100
C3520       C  0.43139850  0.70199927  0.67158088     0.26100
C3521       C  0.44570953  0.71392891  0.68257500    -0.11600
C3522       C  0.45903928  0.70448107  0.69681502    -0.25600
C3523       C  0.45779697  0.68305306  0.70020228     0.37000
C3524       C  0.44351750  0.67116926  0.68928748    -0.27300
F3525       F  0.41915121  0.71131740  0.65734514    -0.19400
H3526       H  0.44666729  0.73045518  0.67979543     0.16300
F3527       F  0.47055618  0.67365751  0.71395085    -0.23100
H3528       H  0.44280232  0.65462460  0.69205580     0.18100
C3529       C  0.33325294  0.63852979  0.58580594    -0.27100
C3530       C  0.33765756  0.65910165  0.58027422     0.06500
C3531       C  0.35421237  0.66920609  0.59017849     0.26100
C3532       C  0.36522128  0.65934714  0.60586544    -0.11600
C3533       C  0.36057386  0.63879917  0.61197176    -0.25600
C3534       C  0.34510794  0.62822507  0.60059115     0.36900
C3535       C  0.32495813  0.66983704  0.56429948     0.06500
F3536       F  0.36053239  0.68831268  0.58409122    -0.19400
H3537       H  0.37823045  0.66770268  0.61225718     0.16300
F3538       F  0.34112358  0.60785904  0.60402757    -0.23100
H3539       H  0.32057966  0.63022482  0.57864658     0.18100
C3540       C  0.31786851  0.65923733  0.54672147     0.26100
C3541       C  0.30473631  0.66910630  0.53269282    -0.11600
C3542       C  0.29933962  0.69008308  0.53511544    -0.25600
C3543       C  0.30722556  0.70098209  0.55211014     0.37000
C3544       C  0.31938323  0.69081030  0.56676641    -0.27300
F3545       F  0.32402974  0.63950341  0.54271762    -0.19400
H3546       H  0.29905615  0.66042905  0.51962491     0.16300
F3547       F  0.30323883  0.72151899  0.55452374    -0.23100
H3548       H  0.32427802  0.69940836  0.58017263     0.18100
C3549       C  0.33131191  0.60295474  0.66225032    -0.27100
C3550       C  0.34319831  0.59091058  0.67590648     0.06500
C3551       C  0.36500472  0.59256449  0.67491082     0.26100
C3552       C  0.37438514  0.60408089  0.65936110    -0.11600
C3553       C  0.36254958  0.61536665  0.64484510    -0.25600
C3554       C  0.34072148  0.61599795  0.64790331     0.36900
C3555       C  0.33279430  0.57607581  0.69022926     0.06500
F3556       F  0.37745310  0.58312621  0.68889642    -0.19400
H3557       H  0.39120128  0.60388882  0.65844198     0.16300
F3558       F  0.32812121  0.62932300  0.63772145    -0.23100
H3559       H  0.31451106  0.60228301  0.66233103     0.18100
C3560       C  0.31279815  0.58013999  0.69828733     0.26100
C3561       C  0.30185923  0.56466330  0.70859657    -0.11600
C3562       C  0.31125419  0.54550272  0.71303060    -0.25600
C3563       C  0.33198055  0.54220186  0.70689571     0.37000
C3564       C  0.34220452  0.55688064  0.69485233    -0.27300
F3565       F  0.30370240  0.59904386  0.69637301    -0.19400
H3566       H  0.28592889  0.56773785  0.71312372     0.16300
F3567       F  0.34215264  0.52446016  0.71198301    -0.23100
H3568       H  0.35729697  0.55276812  0.68872427     0.18100
C3569       C  0.41614045  0.56021277  0.56037368    -0.27100
C3570       C  0.42550805  0.57393372  0.57419118     0.06500
C3571       C  0.44723254  0.57656568  0.57373574     0.26100
C3572       C  0.45927172  0.56605084  0.55915993    -0.11600
C3573       C  0.44983280  0.55260727  0.54504537    -0.25600
C3574       C  0.42813064  0.54968247  0.54584850     0.36900
C3575       C  0.41232626  0.58672103  0.58777709     0.06500
F3576       F  0.45673370  0.58938453  0.58732345    -0.19400
H3577       H  0.47595699  0.56840590  0.55890040     0.16300
F3578       F  0.41831790  0.53745323  0.53196390    -0.23100
H3579       H  0.39939576  0.55826574  0.56032898     0.18100
C3580       C  0.41320412  0.60833291  0.58643646     0.26100
C3581       C  0.40047451  0.62051720  0.59877563    -0.11600
C3582       C  0.38694956  0.61167007  0.61349751    -0.25600
C3583       C  0.38508770  0.58970465  0.61364467     0.37000
C3584       C  0.39785280  0.57751592  0.60103334    -0.27300
F3585       F  0.42614401  0.61772837  0.57285407    -0.19400
H3586       H  0.40177031  0.63718772  0.59738226     0.16300
F3587       F  0.37047841  0.57974034  0.62495679    -0.23100
H3588       H  0.39636152  0.56079452  0.60152452     0.18100
loop_ 
_geom_bond_atom_site_label_1 
_geom_bond_atom_site_label_2 
_geom_bond_distance 
_geom_bond_site_symmetry_2 
_ccdc_geom_bond_type 
C1         C3513   1.557       .  S
C1         C3533   1.557       .  S
C1         C3553   1.555       .  S
C1         C3582   1.555       .  S
N2            N3   1.320       .  A
N2            N8   1.316       .  A
N2          Mn31   2.197       .  S
N3           C10   1.353       .  A
N4            N6   1.314       .  A
N4            N5   1.321       .  A
N4          Mn20   2.194       .  S
N5           C11   1.353       .  A
N6            N7   1.318       .  A
N6          Mn31   2.194       .  S
N7           C11   1.352       .  A
N8            N9   1.319       .  A
N8          Mn20   2.202       .  S
N9           C10   1.353       .  A
C10        C3393   1.477       .  S
C11        C3473   1.474       .  S
N12          N18   1.315       .  A
N12          N13   1.321       .  A
N12         Mn42   2.209       .  S
N13          C21   1.355       .  A
N14          N15   1.317       .  A
N14          N16   1.315       .  A
N14         Mn20   2.192       .  S
N15          C22   1.350       .  A
N16          N17   1.322       .  A
N16         Mn42   2.204       .  S
N17          C22   1.355       .  A
N18          N19   1.320       .  A
N18         Mn20   2.198       .  S
N19          C21   1.353       .  A
Mn20        Cl44   2.547       .  S
C21        C3433   1.481       .  S
C22        C3573   1.475       .  S
N23          N24   1.319       .  A
N23          N29   1.316       .  A
N23         Mn31   2.193       .  S
N24          C32   1.349       .  A
N25          N27   1.316       .  A
N25          N26   1.324       .  A
N25         Mn43   2.218       .  S
N26          C33   1.357       .  A
N27          N28   1.319       .  A
N27         Mn31   2.198       .  S
N28          C33   1.352       .  A
N29          N30   1.321       .  A
N29         Mn43   2.206       .  S
N30          C32   1.353       .  A
Mn31        Cl44   2.535       .  S
C32        C3413   1.464       .  S
C33        C3502   1.486       .  S
N34          N35   1.319       .  A
N34          N40   1.316       .  A
N34         Mn42   2.198       .  S
N35          C45   1.352       .  A
N36          N37   1.324       .  A
N36          N38   1.316       .  A
N36         Mn43   2.220       .  S
N37          C46   1.357       .  A
N38          N39   1.317       .  A
N38         Mn42   2.195       .  S
N39          C46   1.351       .  A
N40          N41   1.321       .  A
N40         Mn43   2.208       .  S
N41          C45   1.355       .  A
Mn42        Cl44   2.542       .  S
Mn43        Cl44   2.557       .  S
C45        C3373   1.480       .  S
C46        C3453   1.484       .  S
C47        C3313   1.569       .  S
C47        C3333   1.562       .  S
C47        C3362   1.570       .  S
C47        C3493   1.564       .  S
C48        C3253   1.560       .  S
C48        C3273   1.567       .  S
C48        C3293   1.559       .  S
C48        C3482   1.560       .  S
C49        C3193   1.560       .  S
C49        C3213   1.563       .  S
C49        C3233   1.561       .  S
C49        C3462   1.560       .  S
C50        C3133   1.564       .  S
C50        C3153   1.555       .  S
C50        C3173   1.560       .  S
C50        C3442   1.557       .  S
C51        C3073   1.561       .  S
C51        C3093   1.559       .  S
C51        C3113   1.561       .  S
C51        C3422   1.561       .  S
C52        C3013   1.555       .  S
C52        C3033   1.560       .  S
C52        C3053   1.561       .  S
C52        C3402   1.558       .  S
C53        C2962   1.560       .  S
C53        C2973   1.557       .  S
C53        C2993   1.560       .  S
C53        C3382   1.561       .  S
N54          C59   1.353       .  A
N54          C58   1.355       .  A
N54          H86   1.038       .  S
N55          C62   1.355       .  A
N55          C63   1.352       .  A
N56          C61   1.357       .  A
N56          C60   1.355       .  A
N56          H87   1.038       .  S
N57          C64   1.351       .  A
N57          C65   1.353       .  A
C58          C66   1.387       .  A
C58          C74   1.417       .  A
C59          C75   1.414   1_556  A
C59          C67   1.387       .  A
C60          C68   1.389       .  A
C60          C77   1.421       .  A
C61          C76   1.420   1_556  A
C61          C69   1.385       .  A
C62          C74   1.416       .  A
C62          C70   1.385       .  A
C63          C77   1.419       .  A
C63          C71   1.388       .  A
C64          C72   1.385       .  A
C64          C75   1.412       .  A
C65          C73   1.387       .  A
C65          C76   1.417       .  A
C66          C67   1.374       .  A
C66          H78   1.082       .  S
C67          H79   1.082   1_556  S
C68          C69   1.372       .  A
C68          H80   1.080       .  S
C69          H81   1.082   1_556  S
C70          C71   1.375       .  A
C70          H82   1.082       .  S
C71          H83   1.082       .  S
C72          C73   1.374       .  A
C72          H84   1.082       .  S
C73          H85   1.082       .  S
C74        C2882   1.497       .  S
C75        C2922   1.484       .  S
C76        C2902   1.503       .  S
C77        C2942   1.490       .  S
N88          C93   1.356   1_565  A
N88          C92   1.358       .  A
N88         H120   1.028       .  S
N89          C96   1.355       .  A
N89          C97   1.353       .  A
N90          C95   1.358   1_565  A
N90          C94   1.355       .  A
N90         H121   1.031       .  S
N91          C98   1.351       .  A
N91          C99   1.353       .  A
C92         C100   1.388       .  A
C92         C108   1.424       .  A
C93         C109   1.423       .  A
C93         C101   1.387   1_545  A
C94         C102   1.388       .  A
C94         C111   1.423       .  A
C95         C110   1.421       .  A
C95         C103   1.386       .  A
C96         C108   1.422       .  A
C96         C104   1.386       .  A
C97         C111   1.421       .  A
C97         C105   1.387       .  A
C98         C106   1.388       .  A
C98         C109   1.418       .  A
C99         C107   1.386       .  A
C99         C110   1.417       .  A
C100        C101   1.372       .  A
C100        H112   1.082       .  S
C101        H113   1.082   1_565  S
C102        C103   1.373   1_565  A
C102        H114   1.082       .  S
C103        H115   1.082       .  S
C104        C105   1.373       .  A
C104        H116   1.082       .  S
C105        H117   1.082       .  S
C106        C107   1.372       .  A
C106        H118   1.082       .  S
C107        H119   1.082       .  S
C108       C2802   1.498       .  S
C109       C2842   1.486       .  S
C110       C2813   1.493       .  S
C111       C2862   1.492       .  S
N122        C127   1.357   1_455  A
N122        C126   1.354       .  A
N122        H154   1.036       .  S
N123        C130   1.351       .  A
N123        C131   1.353       .  A
N124        C129   1.352   1_455  A
N124        C128   1.356       .  A
N124        H155   1.033       .  S
N125        C132   1.354       .  A
N125        C133   1.352       .  A
C126        C134   1.389       .  A
C126        C142   1.422       .  A
C127        C143   1.419       .  A
C127        C135   1.386   1_655  A
C128        C136   1.387       .  A
C128        C145   1.420       .  A
C129        C144   1.419       .  A
C129        C137   1.388   1_655  A
C130        C142   1.415       .  A
C130        C138   1.387       .  A
C131        C145   1.416       .  A
C131        C139   1.386       .  A
C132        C140   1.386       .  A
C132        C143   1.417       .  A
C133        C141   1.387       .  A
C133        C144   1.417       .  A
C134        C135   1.375       .  A
C134        H146   1.082       .  S
C135        H147   1.082   1_455  S
C136        C137   1.374       .  A
C136        H148   1.082       .  S
C137        H149   1.082   1_455  S
C138        C139   1.372       .  A
C138        H150   1.082       .  S
C139        H151   1.082       .  S
C140        C141   1.375       .  A
C140        H152   1.082       .  S
C141        H153   1.082       .  S
C142       C2773   1.488       .  S
C143       C2733   1.497       .  S
C144       C2753   1.484       .  S
C145       C2713   1.491       .  S
N156        C161   1.353       .  A
N156        C160   1.353       .  A
N156        H188   1.037       .  S
N157        C164   1.351       .  A
N157        C165   1.351       .  A
N158        C163   1.353       .  A
N158        C162   1.355       .  A
N158        H189   1.038       .  S
N159        C166   1.352       .  A
N159        C167   1.351       .  A
C160        C168   1.387       .  A
C160        C176   1.416       .  A
C161        C177   1.416       .  A
C161        C169   1.388       .  A
C162        C170   1.386       .  A
C162        C179   1.416       .  A
C163        C178   1.419       .  A
C163        C171   1.388       .  A
C164        C176   1.412       .  A
C164        C172   1.386       .  A
C165        C179   1.411       .  A
C165        C173   1.385       .  A
C166        C174   1.386       .  A
C166        C177   1.413       .  A
C167        C175   1.387       .  A
C167        C178   1.415       .  A
C168        C169   1.375       .  A
C168        H180   1.082       .  S
C169        H181   1.082       .  S
C170        C171   1.374       .  A
C170        H182   1.082       .  S
C171        H183   1.082       .  S
C172        C173   1.372       .  A
C172        H184   1.082       .  S
C173        H185   1.082       .  S
C174        C175   1.374       .  A
C174        H186   1.082       .  S
C175        H187   1.082       .  S
C176       C3302   1.484       .  S
C177       C3122   1.483       .  S
C178       C2673   1.489       .  S
C179       C2702   1.487       .  S
N190        C195   1.355       .  A
N190        C194   1.354       .  A
N190        H222   1.034       .  S
N191        C198   1.353       .  A
N191        C199   1.353       .  A
N192        C197   1.354       .  A
N192        C196   1.355       .  A
N192        H223   1.032       .  S
N193        C200   1.352       .  A
N193        C201   1.353       .  A
C194        C202   1.387       .  A
C194        C210   1.418       .  A
C195        C211   1.418       .  A
C195        C203   1.387       .  A
C196        C204   1.388       .  A
C196        C213   1.421       .  A
C197        C212   1.420       .  A
C197        C205   1.387       .  A
C198        C210   1.416       .  A
C198        C206   1.386       .  A
C199        C213   1.418       .  A
C199        C207   1.387       .  A
C200        C208   1.386       .  A
C200        C211   1.415       .  A
C201        C209   1.387       .  A
C201        C212   1.417       .  A
C202        C203   1.375       .  A
C202        H214   1.082       .  S
C203        H215   1.082       .  S
C204        C205   1.374       .  A
C204        H216   1.081       .  S
C205        H217   1.082       .  S
C206        C207   1.373       .  A
C206        H218   1.082       .  S
C207        H219   1.082       .  S
C208        C209   1.373       .  A
C208        H220   1.082       .  S
C209        H221   1.082       .  S
C210       C2662   1.489       .  S
C211       C2642   1.486       .  S
C212       C3062   1.490       .  S
C213       C3282   1.490       .  S
N224        C229   1.354       .  A
N224        C228   1.352       .  A
N224        H256   1.037       .  S
N225        C232   1.351       .  A
N225        C233   1.352       .  A
N226        C231   1.353       .  A
N226        C230   1.354       .  A
N226        H257   1.038       .  S
N227        C234   1.351       .  A
N227        C235   1.350       .  A
C228        C236   1.388       .  A
C228        C244   1.416       .  A
C229        C245   1.417       .  A
C229        C237   1.387       .  A
C230        C238   1.387       .  A
C230        C247   1.416       .  A
C231        C246   1.416       .  A
C231        C239   1.387       .  A
C232        C244   1.412       .  A
C232        C240   1.386       .  A
C233        C247   1.411       .  A
C233        C241   1.385       .  A
C234        C242   1.386       .  A
C234        C245   1.411       .  A
C235        C243   1.386       .  A
C235        C246   1.412       .  A
C236        C237   1.376       .  A
C236        H248   1.082       .  S
C237        H249   1.082       .  S
C238        C239   1.375       .  A
C238        H250   1.082       .  S
C239        H251   1.082       .  S
C240        C241   1.374       .  A
C240        H252   1.082       .  S
C241        H253   1.082       .  S
C242        C243   1.373       .  A
C242        H254   1.082       .  S
C243        H255   1.082       .  S
C244       C3262   1.484       .  S
C245       C3182   1.487       .  S
C246       C2613   1.486       .  S
C247       C2593   1.489       .  S
N258        C263   1.353       .  A
N258        C262   1.353       .  A
N258        H290   1.036       .  S
N259        C266   1.354       .  A
N259        C267   1.353       .  A
N260        C265   1.356       .  A
N260        C264   1.355       .  A
N260        H291   1.032       .  S
N261        C268   1.353       .  A
N261        C269   1.352       .  A
C262        C270   1.387       .  A
C262        C278   1.415       .  A
C263        C279   1.417   1_556  A
C263        C271   1.388       .  A
C264        C272   1.388       .  A
C264        C281   1.423       .  A
C265        C280   1.423   1_556  A
C265        C273   1.388       .  A
C266        C278   1.416       .  A
C266        C274   1.385       .  A
C267        C281   1.420       .  A
C267        C275   1.387       .  A
C268        C276   1.386       .  A
C268        C279   1.416       .  A
C269        C277   1.387       .  A
C269        C280   1.418       .  A
C270        C271   1.373       .  A
C270        H282   1.082       .  S
C271        H283   1.082   1_556  S
C272        C273   1.376       .  A
C272        H284   1.082       .  S
C273        H285   1.082   1_556  S
C274        C275   1.376       .  A
C274        H286   1.082       .  S
C275        H287   1.082       .  S
C276        C277   1.372       .  A
C276        H288   1.082       .  S
C277        H289   1.082       .  S
C278       C2533   1.488       .  S
C279       C2513   1.490       .  S
C280       C2553   1.491       .  S
C281       C2573   1.491       .  S
N292        C297   1.352   1_556  A
N292        C296   1.357       .  A
N292        H324   1.040       .  S
N293        C300   1.352       .  A
N293        C301   1.350       .  A
N294        C299   1.357   1_556  A
N294        C298   1.354       .  A
N294        H325   1.040       .  S
N295        C302   1.352       .  A
N295        C303   1.355       .  A
C296        C304   1.386       .  A
C296        C312   1.417       .  A
C297        C313   1.419       .  A
C297        C305   1.388   1_554  A
C298        C306   1.386       .  A
C298        C315   1.420       .  A
C299        C314   1.421       .  A
C299        C307   1.388   1_554  A
C300        C312   1.409       .  A
C300        C308   1.384       .  A
C301        C315   1.415       .  A
C301        C309   1.388       .  A
C302        C310   1.387       .  A
C302        C313   1.417       .  A
C303        C311   1.386       .  A
C303        C314   1.418       .  A
C304        C305   1.377       .  A
C304        H316   1.082       .  S
C305        H317   1.082   1_556  S
C306        C307   1.375       .  A
C306        H318   1.082       .  S
C307        H319   1.080   1_556  S
C308        C309   1.374       .  A
C308        H320   1.082       .  S
C309        H321   1.082       .  S
C310        C311   1.374       .  A
C310        H322   1.082       .  S
C311        H323   1.082       .  S
C312       C2502   1.498       .  S
C313       C2473   1.491       .  S
C314       C2433   1.501       .  S
C315       C2462   1.498       .  S
N326        C331   1.355   1_455  A
N326        C330   1.353       .  A
N326        H358   1.036       .  S
N327        C334   1.352       .  A
N327        C335   1.353       .  A
N328        C333   1.353   1_455  A
N328        C332   1.354       .  A
N328        H359   1.037       .  S
N329        C336   1.352       .  A
N329        C337   1.351       .  A
C330        C338   1.387       .  A
C330        C346   1.418       .  A
C331        C347   1.418       .  A
C331        C339   1.388   1_655  A
C332        C340   1.386       .  A
C332        C349   1.415       .  A
C333        C348   1.415       .  A
C333        C341   1.387   1_655  A
C334        C346   1.416       .  A
C334        C342   1.387       .  A
C335        C349   1.413       .  A
C335        C343   1.385       .  A
C336        C344   1.387       .  A
C336        C347   1.415       .  A
C337        C345   1.386       .  A
C337        C348   1.412       .  A
C338        C339   1.370       .  A
C338        H350   1.082       .  S
C339        H351   1.080   1_455  S
C340        C341   1.374       .  A
C340        H352   1.082       .  S
C341        H353   1.082   1_455  S
C342        C343   1.374       .  A
C342        H354   1.082       .  S
C343        H355   1.082       .  S
C344        C345   1.372       .  A
C344        H356   1.082       .  S
C345        H357   1.082       .  S
C346       C2422   1.491       .  S
C347       C2402   1.488       .  S
C348       C2373   1.485       .  S
C349       C2353   1.489       .  S
N360        C365   1.354       .  A
N360        C364   1.353       .  A
N360        H392   1.038       .  S
N361        C368   1.351       .  A
N361        C369   1.351       .  A
N362        C367   1.353       .  A
N362        C366   1.354       .  A
N362        H393   1.039       .  S
N363        C370   1.351       .  A
N363        C371   1.351       .  A
C364        C372   1.386       .  A
C364        C380   1.415       .  A
C365        C381   1.418       .  A
C365        C373   1.388       .  A
C366        C374   1.389       .  A
C366        C383   1.419       .  A
C367        C382   1.412       .  A
C367        C375   1.385       .  A
C368        C380   1.410       .  A
C368        C376   1.385       .  A
C369        C383   1.416       .  A
C369        C377   1.388       .  A
C370        C378   1.387       .  A
C370        C381   1.413       .  A
C371        C379   1.385       .  A
C371        C382   1.408       .  A
C372        C373   1.376       .  A
C372        H384   1.082       .  S
C373        H385   1.082       .  S
C374        C375   1.376       .  A
C374        H386   1.082       .  S
C375        H387   1.082       .  S
C376        C377   1.373       .  A
C376        H388   1.082       .  S
C377        H389   1.082       .  S
C378        C379   1.372       .  A
C378        H390   1.082       .  S
C379        H391   1.082       .  S
C380       C3082   1.486       .  S
C381       C3242   1.492       .  S
C382       C2313   1.483       .  S
C383       C2342   1.496       .  S
N394        C399   1.352       .  A
N394        C398   1.352       .  A
N394        H426   1.041       .  S
N395        C402   1.348       .  A
N395        C403   1.347       .  A
N396        C401   1.350       .  A
N396        C400   1.351       .  A
N396        H427   1.041       .  S
N397        C404   1.350       .  A
N397        C405   1.350       .  A
C398        C406   1.387       .  A
C398        C414   1.415       .  A
C399        C415   1.412       .  A
C399        C407   1.387       .  A
C400        C408   1.386       .  A
C400        C417   1.410       .  A
C401        C416   1.414       .  A
C401        C409   1.388       .  A
C402        C414   1.410       .  A
C402        C410   1.388       .  A
C403        C417   1.403       .  A
C403        C411   1.384       .  A
C404        C412   1.384       .  A
C404        C415   1.408       .  A
C405        C413   1.388       .  A
C405        C416   1.416       .  A
C406        C407   1.376       .  A
C406        H418   1.082       .  S
C407        H419   1.082       .  S
C408        C409   1.377       .  A
C408        H420   1.082       .  S
C409        H421   1.082       .  S
C410        C411   1.373       .  A
C410        H422   1.082       .  S
C411        H423   1.082       .  S
C412        C413   1.374       .  A
C412        H424   1.082       .  S
C413        H425   1.081       .  S
C414       C3562   1.493       .  S
C415       C3042   1.483       .  S
C416       C2293   1.495       .  S
C417       C2273   1.479       .  S
C428       C2193   1.557       .  S
C428       C2213   1.564       .  S
C428       C2233   1.560       .  S
C428       C2253   1.565       .  S
N429        N430   1.321       .  A
N429        N435   1.315       .  A
N429       Mn458   2.205   1_655  S
N430        C437   1.355       .  A
N431        N433   1.316       .  A
N431        N432   1.325       .  A
N431       Mn447   2.222   1_554  S
N432        C438   1.357       .  A
N433        N434   1.318       .  A
N433       Mn458   2.194   1_654  S
N434        C438   1.351       .  A
N435        N436   1.320       .  A
N435       Mn447   2.199       .  S
N436        C437   1.353       .  A
C437       C2262   1.481       .  S
C438       C2093   1.484       .  S
N439        N445   1.316       .  A
N439        N440   1.319       .  A
N439       Mn469   2.201   1_654  S
N440        C448   1.353       .  A
N441        N442   1.321       .  A
N441        N443   1.316       .  A
N441       Mn447   2.207       .  S
N442        C449   1.354       .  A
N443        N444   1.320       .  A
N443       Mn469   2.200   1_655  S
N444        C449   1.353       .  A
N445        N446   1.319       .  A
N445       Mn447   2.200   1_554  S
N446        C448   1.353       .  A
Mn447      Cl471   2.548   1_655  S
C448       C2173   1.477       .  S
C449       C2113   1.482       .  S
N450        N451   1.320       .  A
N450        N456   1.316       .  A
N450       Mn458   2.206   1_554  S
N451        C459   1.354       .  A
N452        N454   1.315       .  A
N452        N453   1.323       .  A
N452       Mn470   2.211       .  S
N453        C460   1.356       .  A
N454        N455   1.317       .  A
N454       Mn458   2.188       .  S
N455        C460   1.350       .  A
N456        N457   1.320       .  A
N456       Mn470   2.198   1_554  S
N457        C459   1.353       .  A
Mn458      Cl471   2.544       .  S
C459       C2073   1.481       .  S
C460       C2142   1.477       .  S
N461        N462   1.322       .  A
N461        N467   1.315       .  A
N461       Mn469   2.202       .  S
N462        C472   1.354       .  A
N463        N464   1.321       .  A
N463        N465   1.316       .  A
N463       Mn470   2.211   1_554  S
N464        C473   1.355       .  A
N465        N466   1.321       .  A
N465       Mn469   2.204   1_554  S
N466        C473   1.354       .  A
N467        N468   1.318       .  A
N467       Mn470   2.196       .  S
N468        C472   1.353       .  A
Mn469      Cl471   2.546       .  S
Mn470      Cl471   2.546       .  S
C472       C2153   1.479       .  S
C473       C2062   1.485       .  S
C474       C2182   1.558       .  S
C474       C2333   1.559       .  S
C474       C2482   1.562       .  S
C474       C2762   1.564       .  S
C475       C2162   1.555       .  S
C475       C2302   1.553       .  S
C475       C2413   1.556       .  S
C475       C2873   1.562       .  S
C476       C2042   1.558       .  S
C476       C2133   1.560       .  S
C476       C2282   1.558       .  S
C476       C2542   1.564       .  S
C477       C2013   1.562       .  S
C477       C2122   1.563       .  S
C477       C2393   1.561       .  S
C477       C2493   1.564       .  S
C478       C1973   1.558       .  S
C478       C1993   1.565       .  S
C478       C2102   1.563       .  S
C478       C2322   1.562       .  S
N479        C484   1.354       .  A
N479        C483   1.355       .  A
N479        H511   1.030       .  S
N480        C487   1.354       .  A
N480        C488   1.354       .  A
N481        C486   1.353       .  A
N481        C485   1.354       .  A
N481        H512   1.029       .  S
N482        C489   1.351       .  A
N482        C490   1.351       .  A
C483        C491   1.389       .  A
C483        C499   1.422       .  A
C484        C500   1.418       .  A
C484        C492   1.386       .  A
C485        C493   1.389       .  A
C485        C502   1.422       .  A
C486        C501   1.417       .  A
C486        C494   1.386       .  A
C487        C499   1.420       .  A
C487        C495   1.386       .  A
C488        C502   1.421       .  A
C488        C496   1.387       .  A
C489        C497   1.386       .  A
C489        C500   1.412       .  A
C490        C498   1.387       .  A
C490        C501   1.415       .  A
C491        C492   1.371       .  A
C491        H503   1.081       .  S
C492        H504   1.082       .  S
C493        C494   1.373       .  A
C493        H505   1.081       .  S
C494        H506   1.082       .  S
C495        C496   1.374       .  A
C495        H507   1.082       .  S
C496        H508   1.082       .  S
C497        C498   1.372       .  A
C497        H509   1.082       .  S
C498        H510   1.082       .  S
C499       C3322   1.492       .  S
C500       C2982   1.484       .  S
C501       C2242   1.484       .  S
C502       C2022   1.491       .  S
C513       C1953   1.554       .  S
C513       C2082   1.557       .  S
C513       C2522   1.559       .  S
C513       C2622   1.559       .  S
C514       C2053   1.562       .  S
C514       C2602   1.563       .  S
C514       C2722   1.563       .  S
C514       C2913   1.558       .  S
N515        C520   1.352   1_565  A
N515        C519   1.352       .  A
N515        H547   1.038       .  S
N516        C523   1.355       .  A
N516        C524   1.352       .  A
N517        C522   1.356   1_565  A
N517        C521   1.354       .  A
N517        H548   1.036       .  S
N518        C525   1.351       .  A
N518        C526   1.351       .  A
C519        C527   1.387       .  A
C519        C535   1.413       .  A
C520        C536   1.411       .  A
C520        C528   1.386   1_545  A
C521        C529   1.390       .  A
C521        C538   1.423       .  A
C522        C537   1.420       .  A
C522        C530   1.386   1_545  A
C523        C535   1.417       .  A
C523        C531   1.384       .  A
C524        C538   1.420       .  A
C524        C532   1.388       .  A
C525        C533   1.385       .  A
C525        C536   1.409       .  A
C526        C534   1.388       .  A
C526        C537   1.414       .  A
C527        C528   1.375       .  A
C527        H539   1.082       .  S
C528        H540   1.082   1_565  S
C529        C530   1.376       .  A
C529        H541   1.081       .  S
C530        H542   1.082   1_565  S
C531        C532   1.376       .  A
C531        H543   1.082       .  S
C532        H544   1.082       .  S
C533        C534   1.372       .  A
C533        H545   1.082       .  S
C534        H546   1.082       .  S
C535       C1942   1.493       .  S
C536       C1922   1.480       .  S
C537       C1893   1.493       .  S
C538       C1873   1.490       .  S
N549        C554   1.353       .  A
N549        C553   1.353       .  A
N549        H581   1.037       .  S
N550        C557   1.353       .  A
N550        C558   1.352       .  A
N551        C556   1.353       .  A
N551        C555   1.353       .  A
N551        H582   1.036       .  S
N552        C559   1.352       .  A
N552        C560   1.352       .  A
C553        C561   1.387       .  A
C553        C569   1.416       .  A
C554        C570   1.416       .  A
C554        C562   1.387       .  A
C555        C563   1.387       .  A
C555        C572   1.415       .  A
C556        C571   1.416       .  A
C556        C564   1.388       .  A
C557        C569   1.416       .  A
C557        C565   1.386       .  A
C558        C572   1.415       .  A
C558        C566   1.386       .  A
C559        C567   1.386       .  A
C559        C570   1.414       .  A
C560        C568   1.386       .  A
C560        C571   1.413       .  A
C561        C562   1.376       .  A
C561        H573   1.082       .  S
C562        H574   1.082       .  S
C563        C564   1.374       .  A
C563        H575   1.082       .  S
C564        H576   1.082       .  S
C565        C566   1.374       .  A
C565        H577   1.082       .  S
C566        H578   1.082       .  S
C567        C568   1.375       .  A
C567        H579   1.082       .  S
C568        H580   1.082       .  S
C569       C3142   1.490       .  S
C570       C3222   1.488       .  S
C571       C1853   1.485       .  S
C572       C1842   1.486       .  S
N583        C588   1.353       .  A
N583        C587   1.354       .  A
N583        H615   1.038       .  S
N584        C591   1.351       .  A
N584        C592   1.349       .  A
N585        C590   1.357       .  A
N585        C589   1.355       .  A
N585        H616   1.033       .  S
N586        C593   1.355       .  A
N586        C594   1.355       .  A
C587        C595   1.386       .  A
C587        C603   1.414       .  A
C588        C604   1.417       .  A
C588        C596   1.388       .  A
C589        C597   1.385       .  A
C589        C606   1.419       .  A
C590        C605   1.429       .  A
C590        C598   1.391       .  A
C591        C603   1.411       .  A
C591        C599   1.385       .  A
C592        C606   1.412       .  A
C592        C600   1.387       .  A
C593        C601   1.384       .  A
C593        C604   1.421       .  A
C594        C602   1.388       .  A
C594        C605   1.425       .  A
C595        C596   1.374       .  A
C595        H607   1.083       .  S
C596        H608   1.082       .  S
C597        C598   1.371       .  A
C597        H609   1.082       .  S
C598        H610   1.080       .  S
C599        C600   1.372       .  A
C599        H611   1.082       .  S
C600        H612   1.083       .  S
C601        C602   1.370       .  A
C601        H613   1.081       .  S
C602        H614   1.079       .  S
C603       C3022   1.487       .  S
C604       C3342   1.500       .  S
C605       C1822   1.502       .  S
C606       C1793   1.482       .  S
C617       C1753   1.563       .  S
C617       C1773   1.561       .  S
C617       C1813   1.561       .  S
C617       C2453   1.560       .  S
N618        N619   1.320       .  A
N618        N624   1.317       .  A
N618       Mn647   2.205       .  S
N619        C626   1.353       .  A
N620        N622   1.316       .  A
N620        N621   1.321       .  A
N620       Mn636   2.213   1_554  S
N621        C627   1.354       .  A
N622        N623   1.323       .  A
N622       Mn647   2.210   1_554  S
N623        C627   1.355       .  A
N624        N625   1.319       .  A
N624       Mn636   2.192       .  S
N625        C626   1.351       .  A
C626       C1673   1.469       .  S
C627       C1742   1.487       .  S
N628        N634   1.316       .  A
N628        N629   1.324       .  A
N628       Mn658   2.220   1_554  S
N629        C637   1.357       .  A
N630        N631   1.323       .  A
N630        N632   1.315       .  A
N630       Mn636   2.217   1_545  S
N631        C638   1.357       .  A
N632        N633   1.318       .  A
N632       Mn658   2.186       .  S
N633        C638   1.350       .  A
N634        N635   1.317       .  A
N634       Mn636   2.191   1_544  S
N635        C637   1.350       .  A
Mn636      Cl660   2.539       .  S
C637       C1613   1.480       .  S
C638       C1782   1.483       .  S
N639        N640   1.323       .  A
N639        N645   1.315       .  A
N639       Mn647   2.213   1_554  S
N640        C648   1.357       .  A
N641        N643   1.315       .  A
N641        N642   1.320       .  A
N641       Mn659   2.201       .  S
N642        C649   1.353       .  A
N643        N644   1.324       .  A
N643       Mn647   2.219       .  S
N644        C649   1.357       .  A
N645        N646   1.318       .  A
N645       Mn659   2.198   1_554  S
N646        C648   1.352       .  A
Mn647      Cl660   2.558       .  S
C648       C1653   1.485       .  S
C649       C1713   1.489       .  S
N650        N651   1.324       .  A
N650        N656   1.316       .  A
N650       Mn658   2.213       .  S
N651        C661   1.355       .  A
N652        N653   1.319       .  A
N652        N654   1.315       .  A
N652       Mn659   2.191   1_544  S
N653        C662   1.350       .  A
N654        N655   1.318       .  A
N654       Mn658   2.191   1_554  S
N655        C662   1.351       .  A
N656        N657   1.319       .  A
N656       Mn659   2.205   1_545  S
N657        C661   1.353       .  A
Mn658      Cl660   2.554   1_545  S
Mn659      Cl660   2.536       .  S
C661       C1693   1.481       .  S
C662       C1633   1.461       .  S
C663       C1573   1.564       .  S
C663       C1593   1.563       .  S
C663       C1733   1.565       .  S
C663       C1862   1.557       .  S
C664       C1553   1.561       .  S
C664       C1722   1.561       .  S
C664       C1933   1.565       .  S
C664       C2582   1.565       .  S
C665       C1702   1.561       .  S
C665       C1802   1.555       .  S
C665       C1913   1.556       .  S
C665       C2933   1.559       .  S
C666       C1502   1.556       .  S
C666       C1513   1.557       .  S
C666       C1533   1.557       .  S
C666       C1682   1.557       .  S
C667       C1662   1.560       .  S
C667       C1833   1.558       .  S
C667       C2562   1.562       .  S
C667       C2793   1.563       .  S
N668        C673   1.353       .  A
N668        C672   1.351       .  A
N668        H700   1.033       .  S
N669        C676   1.351       .  A
N669        C677   1.351       .  A
N670        C675   1.353       .  A
N670        C674   1.355       .  A
N670        H701   1.032       .  S
N671        C678   1.352       .  A
N671        C679   1.350       .  A
C672        C680   1.388       .  A
C672        C688   1.415       .  A
C673        C689   1.415       .  A
C673        C681   1.387       .  A
C674        C682   1.387       .  A
C674        C691   1.420       .  A
C675        C690   1.419       .  A
C675        C683   1.387       .  A
C676        C688   1.413       .  A
C676        C684   1.386       .  A
C677        C691   1.415       .  A
C677        C685   1.387       .  A
C678        C686   1.386       .  A
C678        C689   1.413       .  A
C679        C687   1.387       .  A
C679        C690   1.414       .  A
C680        C681   1.374       .  A
C680        H692   1.082       .  S
C681        H693   1.082       .  S
C682        C683   1.375       .  A
C682        H694   1.082       .  S
C683        H695   1.082       .  S
C684        C685   1.371       .  A
C684        H696   1.082       .  S
C685        H697   1.082       .  S
C686        C687   1.372       .  A
C686        H698   1.082       .  S
C687        H699   1.082       .  S
C688       C3522   1.479       .  S
C689       C2953   1.486       .  S
C690       C1542   1.481       .  S
C691       C1562   1.487       .  S
C702       C1642   1.555       .  S
C702       C2693   1.556       .  S
C702       C2833   1.559       .  S
C702       C2893   1.561       .  S
C703       C1473   1.561       .  S
C703       C1622   1.564       .  S
C703       C2442   1.563       .  S
C703       C2682   1.562       .  S
N704        C709   1.355       .  A
N704        C708   1.354   1_455  A
N704        H736   1.036       .  S
N705        C712   1.353       .  A
N705        C713   1.353       .  A
N706        C711   1.355       .  A
N706        C710   1.356   1_455  A
N706        H737   1.037       .  S
N707        C714   1.351       .  A
N707        C715   1.351       .  A
C708        C716   1.388   1_655  A
C708        C724   1.419       .  A
C709        C725   1.416       .  A
C709        C717   1.387       .  A
C710        C718   1.387   1_655  A
C710        C727   1.420       .  A
C711        C726   1.420       .  A
C711        C719   1.387       .  A
C712        C724   1.418       .  A
C712        C720   1.386       .  A
C713        C727   1.416       .  A
C713        C721   1.386       .  A
C714        C722   1.386       .  A
C714        C725   1.412       .  A
C715        C723   1.387       .  A
C715        C726   1.414       .  A
C716        C717   1.376       .  A
C716        H728   1.082   1_455  S
C717        H729   1.082       .  S
C718        C719   1.376       .  A
C718        H730   1.082   1_455  S
C719        H731   1.082       .  S
C720        C721   1.376       .  A
C720        H732   1.082       .  S
C721        H733   1.082       .  S
C722        C723   1.373       .  A
C722        H734   1.082       .  S
C723        H735   1.082       .  S
C724       C2002   1.493       .  S
C725       C1962   1.485       .  S
C726       C1433   1.491       .  S
C727       C1453   1.493       .  S
N738        C743   1.354   1_565  A
N738        C742   1.354       .  A
N738        H770   1.033       .  S
N739        C746   1.354       .  A
N739        C747   1.353       .  A
N740        C745   1.356   1_565  A
N740        C744   1.355       .  A
N740        H771   1.036       .  S
N741        C748   1.352       .  A
N741        C749   1.351       .  A
C742        C750   1.387       .  A
C742        C758   1.417       .  A
C743        C759   1.420       .  A
C743        C751   1.389   1_545  A
C744        C752   1.388       .  A
C744        C761   1.422       .  A
C745        C760   1.419       .  A
C745        C753   1.386   1_545  A
C746        C758   1.416       .  A
C746        C754   1.385       .  A
C747        C761   1.419       .  A
C747        C755   1.387       .  A
C748        C756   1.387       .  A
C748        C759   1.415       .  A
C749        C757   1.386       .  A
C749        C760   1.415       .  A
C750        C751   1.373       .  A
C750        H762   1.082       .  S
C751        H763   1.082   1_565  S
C752        C753   1.375       .  A
C752        H764   1.082       .  S
C753        H765   1.082   1_565  S
C754        C755   1.375       .  A
C754        H766   1.082       .  S
C755        H767   1.082       .  S
C756        C757   1.373       .  A
C756        H768   1.082       .  S
C757        H769   1.082       .  S
C758       C1602   1.488       .  S
C759       C1482   1.485       .  S
C760       C1422   1.490       .  S
C761       C1393   1.497       .  S
N772        C777   1.356       .  A
N772        C776   1.356       .  A
N772        H804   1.038       .  S
N773        C780   1.352       .  A
N773        C781   1.353       .  A
N774        C779   1.354       .  A
N774        C778   1.356       .  A
N774        H805   1.036       .  S
N775        C782   1.354       .  A
N775        C783   1.353       .  A
C776        C784   1.387       .  A
C776        C792   1.420       .  A
C777        C793   1.423       .  A
C777        C785   1.387       .  A
C778        C786   1.388       .  A
C778        C795   1.420       .  A
C779        C794   1.418       .  A
C779        C787   1.387       .  A
C780        C792   1.415       .  A
C780        C788   1.386       .  A
C781        C795   1.417       .  A
C781        C789   1.387       .  A
C782        C790   1.387       .  A
C782        C793   1.419       .  A
C783        C791   1.385       .  A
C783        C794   1.416       .  A
C784        C785   1.375       .  A
C784        H796   1.081       .  S
C785        H797   1.082       .  S
C786        C787   1.374       .  A
C786        H798   1.081       .  S
C787        H799   1.082       .  S
C788        C789   1.373       .  A
C788        H800   1.082       .  S
C789        H801   1.082       .  S
C790        C791   1.376       .  A
C790        H802   1.082       .  S
C791        H803   1.082       .  S
C792       C1362   1.492       .  S
C793       C1373   1.503       .  S
C794       C3353   1.490       .  S
C795       C3102   1.491       .  S
N806        C811   1.355       .  A
N806        C810   1.352       .  A
N806        H838   1.040       .  S
N807        C814   1.350       .  A
N807        C815   1.351       .  A
N808        C813   1.354       .  A
N808        C812   1.355       .  A
N808        H839   1.040       .  S
N809        C816   1.352       .  A
N809        C817   1.351       .  A
C810        C818   1.386       .  A
C810        C826   1.413       .  A
C811        C827   1.419       .  A
C811        C819   1.388       .  A
C812        C820   1.387       .  A
C812        C829   1.418       .  A
C813        C828   1.417       .  A
C813        C821   1.388       .  A
C814        C826   1.409       .  A
C814        C822   1.385       .  A
C815        C829   1.414       .  A
C815        C823   1.387       .  A
C816        C824   1.386       .  A
C816        C827   1.416       .  A
C817        C825   1.387       .  A
C817        C828   1.414       .  A
C818        C819   1.377       .  A
C818        H830   1.082       .  S
C819        H831   1.082       .  S
C820        C821   1.374       .  A
C820        H832   1.082       .  S
C821        H833   1.081       .  S
C822        C823   1.375       .  A
C822        H834   1.082       .  S
C823        H835   1.082       .  S
C824        C825   1.374       .  A
C824        H836   1.082       .  S
C825        H837   1.082       .  S
C826       C1333   1.484       .  S
C827       C1313   1.501       .  S
C828       C3162   1.487       .  S
C829       C3542   1.496       .  S
C840       C1293   1.567       .  S
C840       C1353   1.564       .  S
C840       C1413   1.566       .  S
C840       C2742   1.563       .  S
N841        N842   1.320       .  A
N841        N847   1.317       .  A
N841       Mn870   2.201   1_645  S
N842        C849   1.353       .  A
N843        N845   1.316       .  A
N843        N844   1.321       .  A
N843       Mn859   2.202       .  S
N844        C850   1.354       .  A
N845        N846   1.320       .  A
N845       Mn870   2.201   1_655  S
N846        C850   1.353       .  A
N847        N848   1.321       .  A
N847       Mn859   2.212   1_545  S
N848        C849   1.354       .  A
C849       C1222   1.483       .  S
C850       C1202   1.481       .  S
N851        N857   1.316       .  A
N851        N852   1.322       .  A
N851       Mn881   2.212   1_655  S
N852        C860   1.355       .  A
N853        N854   1.321       .  A
N853        N855   1.316       .  A
N853       Mn859   2.205   1_545  S
N854        C861   1.354       .  A
N855        N856   1.323       .  A
N855       Mn881   2.219   1_645  S
N856        C861   1.357       .  A
N857        N858   1.323       .  A
N857       Mn859   2.217       .  S
N858        C860   1.357       .  A
Mn859      Cl883   2.552   1_655  S
C860       C1273   1.491       .  S
C861       C1302   1.488       .  S
N862        N863   1.319       .  A
N862        N868   1.316       .  A
N862       Mn870   2.196       .  S
N863        C871   1.352       .  A
N864        N866   1.317       .  A
N864        N865   1.323       .  A
N864       Mn882   2.214   1_545  S
N865        C872   1.353       .  A
N866        N867   1.321       .  A
N866       Mn870   2.205   1_545  S
N867        C872   1.352       .  A
N868        N869   1.323       .  A
N868       Mn882   2.218       .  S
N869        C871   1.356       .  A
Mn870      Cl883   2.550       .  S
C871       C1233   1.482       .  S
C872       C1162   1.474       .  S
N873        N874   1.322       .  A
N873        N879   1.317       .  A
N873       Mn881   2.215   1_545  S
N874        C884   1.356       .  A
N875        N876   1.321       .  A
N875        N877   1.316       .  A
N875       Mn882   2.204       .  S
N876        C885   1.354       .  A
N877        N878   1.320       .  A
N877       Mn881   2.206       .  S
N878        C885   1.353       .  A
N879        N880   1.320       .  A
N879       Mn882   2.205   1_545  S
N880        C884   1.353       .  A
Mn881      Cl883   2.549       .  S
Mn882      Cl883   2.550       .  S
C884       C1173   1.485       .  S
C885       C1262   1.482       .  S
C886       C1133   1.562       .  S
C886       C1282   1.568       .  S
C886       C1402   1.568       .  S
C886       C1462   1.563       .  S
C887       C1253   1.561       .  S
C887       C1322   1.570       .  S
C887       C1442   1.561       .  S
C887       C2853   1.567       .  S
C888       C1113   1.567       .  S
C888       C1242   1.569       .  S
C888       C1342   1.562       .  S
C888       C1882   1.563       .  S
C889       C1102   1.561       .  S
C889       C1213   1.560       .  S
C889       C1382   1.565       .  S
C889       C2382   1.561       .  S
C890       C1033   1.565       .  S
C890       C1053   1.566       .  S
C890       C1073   1.562       .  S
C890       C1193   1.560       .  S
N891        C896   1.352       .  A
N891        C895   1.353       .  A
N891        H923   1.037       .  S
N892        C899   1.353       .  A
N892        C900   1.352       .  A
N893        C898   1.355       .  A
N893        C897   1.353       .  A
N893        H924   1.035       .  S
N894        C901   1.350       .  A
N894        C902   1.351       .  A
C895        C903   1.387       .  A
C895        C911   1.414       .  A
C896        C912   1.413       .  A
C896        C904   1.387       .  A
C897        C905   1.388       .  A
C897        C914   1.420       .  A
C898        C913   1.418       .  A
C898        C906   1.387       .  A
C899        C911   1.414       .  A
C899        C907   1.385       .  A
C900        C914   1.416       .  A
C900        C908   1.387       .  A
C901        C909   1.386       .  A
C901        C912   1.411       .  A
C902        C910   1.387       .  A
C902        C913   1.412       .  A
C903        C904   1.374       .  A
C903        H915   1.082       .  S
C904        H916   1.082       .  S
C905        C906   1.376       .  A
C905        H917   1.082       .  S
C906        H918   1.082       .  S
C907        C908   1.372       .  A
C907        H919   1.082       .  S
C908        H920   1.082       .  S
C909        C910   1.373       .  A
C909        H921   1.082       .  S
C910        H922   1.082       .  S
C911       C1142   1.490       .  S
C912       C1082   1.480       .  S
C913       C3002   1.484       .  S
C914       C3202   1.488       .  S
C925       C1182   1.569       .  S
C925       C2653   1.562       .  S
C925       C2782   1.561       .  S
C925       C2822   1.562       .  S
C926       C1153   1.560       .  S
C926       C1902   1.558       .  S
C926       C2362   1.558       .  S
C926       C2633   1.558       .  S
N927        C932   1.354   1_455  A
N927        C931   1.355       .  A
N927        H959   1.039       .  S
N928        C935   1.353       .  A
N928        C936   1.352       .  A
N929        C934   1.356   1_455  A
N929        C933   1.356       .  A
N929        H960   1.036       .  S
N930        C937   1.354       .  A
N930        C938   1.354       .  A
C931        C939   1.384       .  A
C931        C947   1.414       .  A
C932        C948   1.421       .  A
C932        C940   1.389       .  A
C933        C941   1.386       .  A
C933        C950   1.420       .  A
C934        C949   1.424       .  A
C934        C942   1.389       .  A
C935        C947   1.412       .  A
C935        C943   1.385       .  A
C936        C950   1.415       .  A
C936        C944   1.387       .  A
C937        C945   1.386       .  A
C937        C948   1.420       .  A
C938        C946   1.387       .  A
C938        C949   1.420       .  A
C939        C940   1.375   1_455  A
C939        H951   1.082       .  S
C940        H952   1.082       .  S
C941        C942   1.376   1_455  A
C941        H953   1.082       .  S
C942        H954   1.081       .  S
C943        C944   1.374       .  A
C943        H955   1.082       .  S
C944        H956   1.082       .  S
C945        C946   1.375       .  A
C945        H957   1.082       .  S
C946        H958   1.081       .  S
C947       C1122   1.493       .  S
C948       C1042   1.501       .  S
C949       C2222   1.497       .  S
C950       C2033   1.490       .  S
N961        C966   1.352       .  A
N961        C965   1.352   1_565  A
N961        H993   1.041       .  S
N962        C969   1.350       .  A
N962        C970   1.350       .  A
N963        C968   1.353       .  A
N963        C967   1.355   1_565  A
N963        H994   1.041       .  S
N964        C971   1.352       .  A
N964        C972   1.350       .  A
C965        C973   1.385       .  A
C965        C981   1.411       .  A
C966        C982   1.417       .  A
C966        C974   1.388       .  A
C967        C975   1.388       .  A
C967        C984   1.420       .  A
C968        C983   1.414       .  A
C968        C976   1.386       .  A
C969        C981   1.407       .  A
C969        C977   1.384       .  A
C970        C984   1.414       .  A
C970        C978   1.388       .  A
C971        C979   1.387       .  A
C971        C982   1.415       .  A
C972        C980   1.385       .  A
C972        C983   1.410       .  A
C973        C974   1.377   1_545  A
C973        H985   1.082       .  S
C974        H986   1.082       .  S
C975        C976   1.379   1_545  A
C975        H987   1.082       .  S
C976        H988   1.082       .  S
C977        C978   1.374       .  A
C977        H989   1.082       .  S
C978        H990   1.082       .  S
C979        C980   1.376       .  A
C979        H991   1.082       .  S
C980        H992   1.082       .  S
C981       C1762   1.486       .  S
C982       C1493   1.498       .  S
C983       C1062   1.486       .  S
C984       C1093   1.501       .  S
N995       C1000   1.353       .  A
N995        C999   1.353   1_556  A
N995       H1027   1.039       .  S
N996       C1003   1.352       .  A
N996       C1004   1.352       .  A
N997       C1002   1.355       .  A
N997       C1001   1.354   1_556  A
N997       H1028   1.041       .  S
N998       C1005   1.349       .  A
N998       C1006   1.349       .  A
C999       C1007   1.388   1_554  A
C999       C1015   1.415       .  A
C1000      C1016   1.413       .  A
C1000      C1008   1.386       .  A
C1001      C1009   1.386   1_554  A
C1001      C1018   1.416       .  A
C1002      C1017   1.419       .  A
C1002      C1010   1.388       .  A
C1003      C1015   1.414       .  A
C1003      C1011   1.386       .  A
C1004      C1018   1.414       .  A
C1004      C1012   1.386       .  A
C1005      C1013   1.384       .  A
C1005      C1016   1.407       .  A
C1006      C1014   1.388       .  A
C1006      C1017   1.414       .  A
C1007      C1008   1.375       .  A
C1007      H1019   1.081   1_556  S
C1008      H1020   1.082       .  S
C1009      C1010   1.376       .  A
C1009      H1021   1.082   1_556  S
C1010      H1022   1.082       .  S
C1011      C1012   1.375       .  A
C1011      H1023   1.082       .  S
C1012      H1024   1.082       .  S
C1013      C1014   1.374       .  A
C1013      H1025   1.083       .  S
C1014      H1026   1.082       .  S
C1015      C1982   1.486       .  S
C1016      C2202   1.483       .  S
C1017      C1522   1.498       .  S
C1018      C1582   1.494       .  S
C1029      C1030   1.404       .  A
C1029      C1034   1.396       .  A
C1029      H1039   1.082       .  S
C1030      C1035   1.500       .  S
C1030      C1031   1.409       .  A
C1031      C1032   1.401       .  A
C1031      F1036   1.357       .  S
C1032      C1033   1.417       .  A
C1032      H1037   1.077       .  S
C1033      C1034   1.418       .  A
C1034      F1038   1.357       .  S
C1035      C1040   1.412       .  A
C1035      C1044   1.410       .  A
C1040      C1041   1.397       .  A
C1040      F1045   1.357       .  S
C1041      C1042   1.405       .  A
C1041      H1046   1.083       .  S
C1042      C1043   1.408       .  A
C1043      C1044   1.402       .  A
C1043      F1047   1.357       .  S
C1044      H1048   1.082       .  S
C1049      C1050   1.402       .  A
C1049      C1054   1.402       .  A
C1049      H1059   1.083       .  S
C1050      C1055   1.484       .  S
C1050      C1051   1.401       .  A
C1051      C1052   1.395       .  A
C1051      F1056   1.358       .  S
C1052      C1053   1.419       .  A
C1052      H1057   1.078       .  S
C1053      C1054   1.420       .  A
C1054      F1058   1.358       .  S
C1055      C1060   1.408       .  A
C1055      C1064   1.405       .  A
C1060      C1061   1.399       .  A
C1060      F1065   1.358       .  S
C1061      C1062   1.402       .  A
C1061      H1066   1.083       .  S
C1062      C1063   1.405       .  A
C1063      C1064   1.401       .  A
C1063      F1067   1.357       .  S
C1064      H1068   1.083       .  S
C1069      C1070   1.398       .  A
C1069      C1074   1.395       .  A
C1069      H1079   1.084       .  S
C1070      C1075   1.477       .  S
C1070      C1071   1.400       .  A
C1071      C1072   1.398       .  A
C1071      F1076   1.358       .  S
C1072      C1073   1.418       .  A
C1072      H1077   1.078       .  S
C1073      C1074   1.421       .  A
C1074      F1078   1.357       .  S
C1075      C1080   1.407       .  A
C1075      C1084   1.403       .  A
C1080      C1081   1.397       .  A
C1080      F1085   1.357       .  S
C1081      C1082   1.401       .  A
C1081      H1086   1.083       .  S
C1082      C1083   1.404       .  A
C1083      C1084   1.397       .  A
C1083      F1087   1.358       .  S
C1084      H1088   1.083       .  S
C1089      C1090   1.409       .  A
C1089      C1094   1.400       .  A
C1089      H1099   1.081       .  S
C1090      C1095   1.503       .  S
C1090      C1091   1.415       .  A
C1091      C1092   1.398       .  A
C1091      F1096   1.357       .  S
C1092      C1093   1.403       .  A
C1092      H1097   1.083       .  S
C1093      C1094   1.410       .  A
C1094      F1098   1.358       .  S
C1095      C1100   1.412       .  A
C1095      C1104   1.405       .  A
C1100      C1101   1.400       .  A
C1100      F1105   1.356       .  S
C1101      C1102   1.413       .  A
C1101      H1106   1.078       .  S
C1102      C1103   1.419       .  A
C1103      C1104   1.397       .  A
C1103      F1107   1.357       .  S
C1104      H1108   1.082       .  S
C1109      C1110   1.401       .  A
C1109      C1114   1.403       .  A
C1109      H1119   1.083       .  S
C1110      C1115   1.490       .  S
C1110      C1111   1.402       .  A
C1111      C1112   1.401       .  A
C1111      F1116   1.357       .  S
C1112      C1113   1.417       .  A
C1112      H1117   1.083       .  S
C1113      C1114   1.424       .  A
C1114      F1118   1.355       .  S
C1115      C1120   1.409       .  A
C1115      C1124   1.405       .  A
C1120      C1121   1.405       .  A
C1120      F1125   1.357       .  S
C1121      C1122   1.405       .  A
C1121      H1126   1.083       .  S
C1122      C1123   1.405       .  A
C1123      C1124   1.400       .  A
C1123      F1127   1.357       .  S
C1124      H1128   1.083       .  S
C1129      C1130   1.400       .  A
C1129      C1134   1.398       .  A
C1129      H1139   1.083       .  S
C1130      C1135   1.484       .  S
C1130      C1131   1.403       .  A
C1131      C1132   1.399       .  A
C1131      F1136   1.358       .  S
C1132      C1133   1.417       .  A
C1132      H1137   1.080       .  S
C1133      C1134   1.419       .  A
C1134      F1138   1.357       .  S
C1135      C1140   1.409       .  A
C1135      C1144   1.404       .  A
C1140      C1141   1.401       .  A
C1140      F1145   1.357       .  S
C1141      C1142   1.404       .  A
C1141      H1146   1.083       .  S
C1142      C1143   1.406       .  A
C1143      C1144   1.397       .  A
C1143      F1147   1.358       .  S
C1144      H1148   1.083       .  S
C1149      C1150   1.404       .  A
C1149      C1154   1.399       .  A
C1149      H1159   1.083       .  S
C1150      C1155   1.493       .  S
C1150      C1151   1.406       .  A
C1151      C1152   1.398       .  A
C1151      F1156   1.357       .  S
C1152      C1153   1.415       .  A
C1152      H1157   1.080       .  S
C1153      C1154   1.418       .  A
C1154      F1158   1.357       .  S
C1155      C1160   1.410       .  A
C1155      C1164   1.409       .  A
C1160      C1161   1.400       .  A
C1160      F1165   1.357       .  S
C1161      C1162   1.402       .  A
C1161      H1166   1.083       .  S
C1162      C1163   1.402       .  A
C1163      C1164   1.401       .  A
C1163      F1167   1.357       .  S
C1164      H1168   1.083       .  S
C1169      C1170   1.406       .  A
C1169      C1174   1.401       .  A
C1169      H1179   1.083       .  S
C1170      C1175   1.491       .  S
C1170      C1171   1.408       .  A
C1171      C1172   1.400       .  A
C1171      F1176   1.357       .  S
C1172      C1173   1.404       .  A
C1172      H1177   1.083       .  S
C1173      C1174   1.410       .  A
C1174      F1178   1.358       .  S
C1175      C1180   1.404       .  A
C1175      C1184   1.403       .  A
C1180      C1181   1.400       .  A
C1180      F1185   1.358       .  S
C1181      C1182   1.419       .  A
C1181      H1186   1.078       .  S
C1182      C1183   1.419       .  A
C1183      C1184   1.399       .  A
C1183      F1187   1.357       .  S
C1184      H1188   1.083       .  S
C1189      C1190   1.402       .  A
C1189      C1194   1.397       .  A
C1189      H1199   1.083       .  S
C1190      C1195   1.488       .  S
C1190      C1191   1.405       .  A
C1191      C1192   1.397       .  A
C1191      F1196   1.358       .  S
C1192      C1193   1.416       .  A
C1192      H1197   1.079       .  S
C1193      C1194   1.419       .  A
C1194      F1198   1.358       .  S
C1195      C1200   1.408       .  A
C1195      C1204   1.406       .  A
C1200      C1201   1.399       .  A
C1200      F1205   1.357       .  S
C1201      C1202   1.405       .  A
C1201      H1206   1.083       .  S
C1202      C1203   1.408       .  A
C1203      C1204   1.397       .  A
C1203      F1207   1.357       .  S
C1204      H1208   1.083       .  S
C1209      C1210   1.398       .  A
C1209      C1214   1.400       .  A
C1209      H1219   1.084       .  S
C1210      C1215   1.473       .  S
C1210      C1211   1.396       .  A
C1211      C1212   1.395       .  A
C1211      F1216   1.357       .  S
C1212      C1213   1.417       .  A
C1212      H1217   1.083       .  S
C1213      C1214   1.425       .  A
C1214      F1218   1.355       .  S
C1215      C1220   1.402       .  A
C1215      C1224   1.400       .  A
C1220      C1221   1.399       .  A
C1220      F1225   1.358       .  S
C1221      C1222   1.408       .  A
C1221      H1226   1.083       .  S
C1222      C1223   1.410       .  A
C1223      C1224   1.398       .  A
C1223      F1227   1.357       .  S
C1224      H1228   1.083       .  S
C1229      C1230   1.407       .  A
C1229      C1234   1.403       .  A
C1229      H1239   1.083       .  S
C1230      C1235   1.489       .  S
C1230      C1231   1.407       .  A
C1231      C1232   1.398       .  A
C1231      F1236   1.357       .  S
C1232      C1233   1.405       .  A
C1232      H1237   1.083       .  S
C1233      C1234   1.407       .  A
C1234      F1238   1.357       .  S
C1235      C1240   1.404       .  A
C1235      C1244   1.401       .  A
C1240      C1241   1.400       .  A
C1240      F1245   1.358       .  S
C1241      C1242   1.417       .  A
C1241      H1246   1.078       .  S
C1242      C1243   1.421       .  A
C1243      C1244   1.400       .  A
C1243      F1247   1.358       .  S
C1244      H1248   1.083       .  S
C1249      C1250   1.402       .  A
C1249      C1254   1.399       .  A
C1249      H1259   1.083       .  S
C1250      C1255   1.489       .  S
C1250      C1251   1.404       .  A
C1251      C1252   1.397       .  A
C1251      F1256   1.357       .  S
C1252      C1253   1.416       .  A
C1252      H1257   1.078       .  S
C1253      C1254   1.421       .  A
C1254      F1258   1.357       .  S
C1255      C1260   1.408       .  A
C1255      C1264   1.406       .  A
C1260      C1261   1.398       .  A
C1260      F1265   1.357       .  S
C1261      C1262   1.405       .  A
C1261      H1266   1.083       .  S
C1262      C1263   1.408       .  A
C1263      C1264   1.400       .  A
C1263      F1267   1.357       .  S
C1264      H1268   1.083       .  S
C1269      C1270   1.408       .  A
C1269      C1274   1.403       .  A
C1269      H1279   1.083       .  S
C1270      C1275   1.501       .  S
C1270      C1271   1.411       .  A
C1271      C1272   1.402       .  A
C1271      F1276   1.357       .  S
C1272      C1273   1.405       .  A
C1272      H1277   1.083       .  S
C1273      C1274   1.410       .  A
C1274      F1278   1.357       .  S
C1275      C1280   1.407       .  A
C1275      C1284   1.405       .  A
C1280      C1281   1.399       .  A
C1280      F1285   1.357       .  S
C1281      C1282   1.415       .  A
C1281      H1286   1.083       .  S
C1282      C1283   1.423       .  A
C1283      C1284   1.404       .  A
C1283      F1287   1.355       .  S
C1284      H1288   1.083       .  S
C1289      C1290   1.402       .  A
C1289      C1294   1.400       .  A
C1289      H1299   1.083       .  S
C1290      C1295   1.490       .  S
C1290      C1291   1.404       .  A
C1291      C1292   1.401       .  A
C1291      F1296   1.358       .  S
C1292      C1293   1.418       .  A
C1292      H1297   1.079       .  S
C1293      C1294   1.420       .  A
C1294      F1298   1.357       .  S
C1295      C1300   1.407       .  A
C1295      C1304   1.406       .  A
C1300      C1301   1.401       .  A
C1300      F1305   1.358       .  S
C1301      C1302   1.407       .  A
C1301      H1306   1.083       .  S
C1302      C1303   1.408       .  A
C1303      C1304   1.403       .  A
C1303      F1307   1.357       .  S
C1304      H1308   1.083       .  S
C1309      C1310   1.411       .  A
C1309      C1314   1.401       .  A
C1309      H1319   1.081       .  S
C1310      C1315   1.507       .  S
C1310      C1311   1.416       .  A
C1311      C1312   1.400       .  A
C1311      F1316   1.357       .  S
C1312      C1313   1.404       .  A
C1312      H1317   1.083       .  S
C1313      C1314   1.407       .  A
C1314      F1318   1.358       .  S
C1315      C1320   1.412       .  A
C1315      C1324   1.406       .  A
C1320      C1321   1.402       .  A
C1320      F1325   1.357       .  S
C1321      C1322   1.415       .  A
C1321      H1326   1.076       .  S
C1322      C1323   1.420       .  A
C1323      C1324   1.398       .  A
C1323      F1327   1.357       .  S
C1324      H1328   1.081       .  S
C1329      C1330   1.405       .  A
C1329      C1334   1.395       .  A
C1329      H1339   1.083       .  S
C1330      C1335   1.485       .  S
C1330      C1331   1.409       .  A
C1331      C1332   1.402       .  A
C1331      F1336   1.357       .  S
C1332      C1333   1.404       .  A
C1332      H1337   1.083       .  S
C1333      C1334   1.402       .  A
C1334      F1338   1.357       .  S
C1335      C1340   1.403       .  A
C1335      C1344   1.402       .  A
C1340      C1341   1.393       .  A
C1340      F1345   1.358       .  S
C1341      C1342   1.415       .  A
C1341      H1346   1.078       .  S
C1342      C1343   1.421       .  A
C1343      C1344   1.402       .  A
C1343      F1347   1.357       .  S
C1344      H1348   1.083       .  S
C1349      C1350   1.402       .  A
C1349      C1354   1.402       .  A
C1349      H1359   1.083       .  S
C1350      C1355   1.492       .  S
C1350      C1351   1.405       .  A
C1351      C1352   1.399       .  A
C1351      F1356   1.357       .  S
C1352      C1353   1.415       .  A
C1352      H1357   1.083       .  S
C1353      C1354   1.423       .  A
C1354      F1358   1.355       .  S
C1355      C1360   1.410       .  A
C1355      C1364   1.406       .  A
C1360      C1361   1.401       .  A
C1360      F1365   1.357       .  S
C1361      C1362   1.403       .  A
C1361      H1366   1.083       .  S
C1362      C1363   1.406       .  A
C1363      C1364   1.400       .  A
C1363      F1367   1.358       .  S
C1364      H1368   1.083       .  S
C1369      C1370   1.411       .  A
C1369      C1374   1.403       .  A
C1369      H1379   1.082       .  S
C1370      C1375   1.505       .  S
C1370      C1371   1.413       .  A
C1371      C1372   1.400       .  A
C1371      F1376   1.357       .  S
C1372      C1373   1.405       .  A
C1372      H1377   1.083       .  S
C1373      C1374   1.408       .  A
C1374      F1378   1.358       .  S
C1375      C1380   1.409       .  A
C1375      C1384   1.407       .  A
C1380      C1381   1.402       .  A
C1380      F1385   1.357       .  S
C1381      C1382   1.417       .  A
C1381      H1386   1.080       .  S
C1382      C1383   1.417       .  A
C1383      C1384   1.400       .  A
C1383      F1387   1.357       .  S
C1384      H1388   1.081       .  S
C1389      C1390   1.404       .  A
C1389      C1394   1.403       .  A
C1389      H1399   1.083       .  S
C1390      C1395   1.485       .  S
C1390      C1391   1.406       .  A
C1391      C1392   1.400       .  A
C1391      F1396   1.357       .  S
C1392      C1393   1.406       .  A
C1392      H1397   1.083       .  S
C1393      C1394   1.408       .  A
C1394      F1398   1.357       .  S
C1395      C1400   1.402       .  A
C1395      C1404   1.400       .  A
C1400      C1401   1.400       .  A
C1400      F1405   1.358       .  S
C1401      C1402   1.418       .  A
C1401      H1406   1.079       .  S
C1402      C1403   1.421       .  A
C1403      C1404   1.403       .  A
C1403      F1407   1.357       .  S
C1404      H1408   1.083       .  S
C1409      C1410   1.403       .  A
C1409      C1414   1.403       .  A
C1409      H1419   1.083       .  S
C1410      C1415   1.490       .  S
C1410      C1411   1.403       .  A
C1411      C1412   1.399       .  A
C1411      F1416   1.358       .  S
C1412      C1413   1.418       .  A
C1412      H1417   1.079       .  S
C1413      C1414   1.419       .  A
C1414      F1418   1.357       .  S
C1415      C1420   1.409       .  A
C1415      C1424   1.406       .  A
C1420      C1421   1.400       .  A
C1420      F1425   1.357       .  S
C1421      C1422   1.402       .  A
C1421      H1426   1.083       .  S
C1422      C1423   1.405       .  A
C1423      C1424   1.402       .  A
C1423      F1427   1.357       .  S
C1424      H1428   1.083       .  S
C1429      C1430   1.406       .  A
C1429      C1434   1.402       .  A
C1429      H1439   1.083       .  S
C1430      C1435   1.485       .  S
C1430      C1431   1.408       .  A
C1431      C1432   1.395       .  A
C1431      F1436   1.357       .  S
C1432      C1433   1.402       .  A
C1432      H1437   1.083       .  S
C1433      C1434   1.409       .  A
C1434      F1438   1.357       .  S
C1435      C1440   1.403       .  A
C1435      C1444   1.399       .  A
C1440      C1441   1.402       .  A
C1440      F1445   1.357       .  S
C1441      C1442   1.418       .  A
C1441      H1446   1.083       .  S
C1442      C1443   1.423       .  A
C1443      C1444   1.393       .  A
C1443      F1447   1.354       .  S
C1444      H1448   1.084       .  S
C1449      C1450   1.409       .  A
C1449      C1454   1.403       .  A
C1449      H1459   1.083       .  S
C1450      C1455   1.495       .  S
C1450      C1451   1.409       .  A
C1451      C1452   1.402       .  A
C1451      F1456   1.357       .  S
C1452      C1453   1.403       .  A
C1452      H1457   1.083       .  S
C1453      C1454   1.405       .  A
C1454      F1458   1.357       .  S
C1455      C1460   1.405       .  A
C1455      C1464   1.405       .  A
C1460      C1461   1.400       .  A
C1460      F1465   1.358       .  S
C1461      C1462   1.418       .  A
C1461      H1466   1.079       .  S
C1462      C1463   1.417       .  A
C1463      C1464   1.403       .  A
C1463      F1467   1.357       .  S
C1464      H1468   1.083       .  S
C1469      C1470   1.402       .  A
C1469      C1474   1.399       .  A
C1469      H1479   1.083       .  S
C1470      C1475   1.489       .  S
C1470      C1471   1.405       .  A
C1471      C1472   1.394       .  A
C1471      F1476   1.358       .  S
C1472      C1473   1.415       .  A
C1472      H1477   1.083       .  S
C1473      C1474   1.422       .  A
C1474      F1478   1.355       .  S
C1475      C1480   1.410       .  A
C1475      C1484   1.408       .  A
C1480      C1481   1.397       .  A
C1480      F1485   1.357       .  S
C1481      C1482   1.402       .  A
C1481      H1486   1.083       .  S
C1482      C1483   1.402       .  A
C1483      C1484   1.397       .  A
C1483      F1487   1.357       .  S
C1484      H1488   1.083       .  S
C1489      C1490   1.409       .  A
C1489      C1494   1.400       .  A
C1489      H1499   1.082       .  S
C1490      C1495   1.495       .  S
C1490      C1491   1.410       .  A
C1491      C1492   1.396       .  A
C1491      F1496   1.357       .  S
C1492      C1493   1.406       .  A
C1492      H1497   1.083       .  S
C1493      C1494   1.408       .  A
C1494      F1498   1.357       .  S
C1495      C1500   1.407       .  A
C1495      C1504   1.405       .  A
C1500      C1501   1.397       .  A
C1500      F1505   1.357       .  S
C1501      C1502   1.415       .  A
C1501      H1506   1.079       .  S
C1502      C1503   1.416       .  A
C1503      C1504   1.398       .  A
C1503      F1507   1.357       .  S
C1504      H1508   1.082       .  S
C1509      C1510   1.407       .  A
C1509      C1514   1.398       .  A
C1509      H1519   1.080       .  S
C1510      C1515   1.499       .  S
C1510      C1511   1.409       .  A
C1511      C1512   1.395       .  A
C1511      F1516   1.357       .  S
C1512      C1513   1.415       .  A
C1512      H1517   1.082       .  S
C1513      C1514   1.418       .  A
C1514      F1518   1.354       .  S
C1515      C1520   1.413       .  A
C1515      C1524   1.410       .  A
C1520      C1521   1.397       .  A
C1520      F1525   1.357       .  S
C1521      C1522   1.405       .  A
C1521      H1526   1.083       .  S
C1522      C1523   1.406       .  A
C1523      C1524   1.397       .  A
C1523      F1527   1.358       .  S
C1524      H1528   1.081       .  S
C1529      C1530   1.400       .  A
C1529      C1534   1.399       .  A
C1529      H1539   1.083       .  S
C1530      C1535   1.474       .  S
C1530      C1531   1.399       .  A
C1531      C1532   1.392       .  A
C1531      F1536   1.358       .  S
C1532      C1533   1.417       .  A
C1532      H1537   1.080       .  S
C1533      C1534   1.418       .  A
C1534      F1538   1.357       .  S
C1535      C1540   1.405       .  A
C1535      C1544   1.404       .  A
C1540      C1541   1.397       .  A
C1540      F1545   1.358       .  S
C1541      C1542   1.403       .  A
C1541      H1546   1.083       .  S
C1542      C1543   1.403       .  A
C1543      C1544   1.396       .  A
C1543      F1547   1.357       .  S
C1544      H1548   1.083       .  S
C1549      C1550   1.399       .  A
C1549      C1554   1.396       .  A
C1549      H1559   1.083       .  S
C1550      C1555   1.487       .  S
C1550      C1551   1.406       .  A
C1551      C1552   1.402       .  A
C1551      F1556   1.357       .  S
C1552      C1553   1.415       .  A
C1552      H1557   1.080       .  S
C1553      C1554   1.420       .  A
C1554      F1558   1.356       .  S
C1555      C1560   1.409       .  A
C1555      C1564   1.407       .  A
C1560      C1561   1.399       .  A
C1560      F1565   1.357       .  S
C1561      C1562   1.402       .  A
C1561      H1566   1.083       .  S
C1562      C1563   1.404       .  A
C1563      C1564   1.400       .  A
C1563      F1567   1.357       .  S
C1564      H1568   1.083       .  S
C1569      C1570   1.403       .  A
C1569      C1574   1.404       .  A
C1569      H1579   1.083       .  S
C1570      C1575   1.486       .  S
C1570      C1571   1.402       .  A
C1571      C1572   1.396       .  A
C1571      F1576   1.358       .  S
C1572      C1573   1.416       .  A
C1572      H1577   1.079       .  S
C1573      C1574   1.420       .  A
C1574      F1578   1.357       .  S
C1575      C1580   1.407       .  A
C1575      C1584   1.405       .  A
C1580      C1581   1.403       .  A
C1580      F1585   1.357       .  S
C1581      C1582   1.407       .  A
C1581      H1586   1.083       .  S
C1582      C1583   1.406       .  A
C1583      C1584   1.397       .  A
C1583      F1587   1.358       .  S
C1584      H1588   1.083       .  S
C1589      C1590   1.400       .  A
C1589      C1594   1.399       .  A
C1589      H1599   1.084       .  S
C1590      C1595   1.488       .  S
C1590      C1591   1.404       .  A
C1591      C1592   1.401       .  A
C1591      F1596   1.357       .  S
C1592      C1593   1.416       .  A
C1592      H1597   1.083       .  S
C1593      C1594   1.424       .  A
C1594      F1598   1.355       .  S
C1595      C1600   1.408       .  A
C1595      C1604   1.407       .  A
C1600      C1601   1.398       .  A
C1600      F1605   1.357       .  S
C1601      C1602   1.401       .  A
C1601      H1606   1.083       .  S
C1602      C1603   1.405       .  A
C1603      C1604   1.403       .  A
C1603      F1607   1.357       .  S
C1604      H1608   1.083       .  S
C1609      C1610   1.404       .  A
C1609      C1614   1.395       .  A
C1609      H1619   1.083       .  S
C1610      C1615   1.488       .  S
C1610      C1611   1.410       .  A
C1611      C1612   1.401       .  A
C1611      F1616   1.357       .  S
C1612      C1613   1.404       .  A
C1612      H1617   1.083       .  S
C1613      C1614   1.409       .  A
C1614      F1618   1.357       .  S
C1615      C1620   1.404       .  A
C1615      C1624   1.403       .  A
C1620      C1621   1.395       .  A
C1620      F1625   1.358       .  S
C1621      C1622   1.417       .  A
C1621      H1626   1.079       .  S
C1622      C1623   1.418       .  A
C1623      C1624   1.399       .  A
C1623      F1627   1.357       .  S
C1624      H1628   1.083       .  S
C1629      C1630   1.408       .  A
C1629      C1634   1.398       .  A
C1629      H1639   1.083       .  S
C1630      C1635   1.484       .  S
C1630      C1631   1.409       .  A
C1631      C1632   1.393       .  A
C1631      F1636   1.358       .  S
C1632      C1633   1.399       .  A
C1632      H1637   1.084       .  S
C1633      C1634   1.401       .  A
C1634      F1638   1.358       .  S
C1635      C1640   1.404       .  A
C1635      C1644   1.401       .  A
C1640      C1641   1.398       .  A
C1640      F1645   1.358       .  S
C1641      C1642   1.416       .  A
C1641      H1646   1.081       .  S
C1642      C1643   1.417       .  A
C1643      C1644   1.392       .  A
C1643      F1647   1.356       .  S
C1644      H1648   1.083       .  S
C1649      C1650   1.404       .  A
C1649      C1654   1.402       .  A
C1649      H1659   1.083       .  S
C1650      C1655   1.479       .  S
C1650      C1651   1.402       .  A
C1651      C1652   1.398       .  A
C1651      F1656   1.357       .  S
C1652      C1653   1.408       .  A
C1652      H1657   1.083       .  S
C1653      C1654   1.409       .  A
C1654      F1658   1.357       .  S
C1655      C1660   1.402       .  A
C1655      C1664   1.398       .  A
C1660      C1661   1.399       .  A
C1660      F1665   1.358       .  S
C1661      C1662   1.416       .  A
C1661      H1666   1.080       .  S
C1662      C1663   1.420       .  A
C1663      C1664   1.399       .  A
C1663      F1667   1.356       .  S
C1664      H1668   1.083       .  S
C1669      C1670   1.403       .  A
C1669      C1674   1.398       .  A
C1669      H1679   1.083       .  S
C1670      C1675   1.475       .  S
C1670      C1671   1.405       .  A
C1671      C1672   1.395       .  A
C1671      F1676   1.358       .  S
C1672      C1673   1.402       .  A
C1672      H1677   1.083       .  S
C1673      C1674   1.405       .  A
C1674      F1678   1.358       .  S
C1675      C1680   1.400       .  A
C1675      C1684   1.399       .  A
C1680      C1681   1.396       .  A
C1680      F1685   1.358       .  S
C1681      C1682   1.417       .  A
C1681      H1686   1.083       .  S
C1682      C1683   1.421       .  A
C1683      C1684   1.396       .  A
C1683      F1687   1.355       .  S
C1684      H1688   1.084       .  S
C1689      C1690   1.409       .  A
C1689      C1694   1.404       .  A
C1689      H1699   1.083       .  S
C1690      C1695   1.490       .  S
C1690      C1691   1.407       .  A
C1691      C1692   1.395       .  A
C1691      F1696   1.357       .  S
C1692      C1693   1.403       .  A
C1692      H1697   1.083       .  S
C1693      C1694   1.408       .  A
C1694      F1698   1.357       .  S
C1695      C1700   1.404       .  A
C1695      C1704   1.403       .  A
C1700      C1701   1.398       .  A
C1700      F1705   1.357       .  S
C1701      C1702   1.417       .  A
C1701      H1706   1.083       .  S
C1702      C1703   1.420       .  A
C1703      C1704   1.398       .  A
C1703      F1707   1.355       .  S
C1704      H1708   1.083       .  S
C1709      C1710   1.408       .  A
C1709      C1714   1.401       .  A
C1709      H1719   1.083       .  S
C1710      C1715   1.494       .  S
C1710      C1711   1.408       .  A
C1711      C1712   1.401       .  A
C1711      F1716   1.357       .  S
C1712      C1713   1.407       .  A
C1712      H1717   1.083       .  S
C1713      C1714   1.408       .  A
C1714      F1718   1.357       .  S
C1715      C1720   1.405       .  A
C1715      C1724   1.405       .  A
C1720      C1721   1.398       .  A
C1720      F1725   1.358       .  S
C1721      C1722   1.418       .  A
C1721      H1726   1.080       .  S
C1722      C1723   1.416       .  A
C1723      C1724   1.400       .  A
C1723      F1727   1.357       .  S
C1724      H1728   1.082       .  S
C1729      C1730   1.400       .  A
C1729      C1734   1.397       .  A
C1729      H1739   1.083       .  S
C1730      C1735   1.490       .  S
C1730      C1731   1.406       .  A
C1731      C1732   1.402       .  A
C1731      F1736   1.357       .  S
C1732      C1733   1.416       .  A
C1732      H1737   1.079       .  S
C1733      C1734   1.421       .  A
C1734      F1738   1.357       .  S
C1735      C1740   1.407       .  A
C1735      C1744   1.407       .  A
C1740      C1741   1.399       .  A
C1740      F1745   1.357       .  S
C1741      C1742   1.406       .  A
C1741      H1746   1.083       .  S
C1742      C1743   1.409       .  A
C1743      C1744   1.403       .  A
C1743      F1747   1.357       .  S
C1744      H1748   1.083       .  S
C1749      C1750   1.403       .  A
C1749      C1754   1.401       .  A
C1749      H1759   1.083       .  S
C1750      C1755   1.492       .  S
C1750      C1751   1.406       .  A
C1751      C1752   1.397       .  A
C1751      F1756   1.358       .  S
C1752      C1753   1.415       .  A
C1752      H1757   1.078       .  S
C1753      C1754   1.418       .  A
C1754      F1758   1.357       .  S
C1755      C1760   1.411       .  A
C1755      C1764   1.408       .  A
C1760      C1761   1.401       .  A
C1760      F1765   1.357       .  S
C1761      C1762   1.403       .  A
C1761      H1766   1.083       .  S
C1762      C1763   1.403       .  A
C1763      C1764   1.398       .  A
C1763      F1767   1.358       .  S
C1764      H1768   1.083       .  S
C1769      C1770   1.399       .  A
C1769      C1774   1.400       .  A
C1769      H1779   1.084       .  S
C1770      C1775   1.479       .  S
C1770      C1771   1.398       .  A
C1771      C1772   1.396       .  A
C1771      F1776   1.357       .  S
C1772      C1773   1.416       .  A
C1772      H1777   1.082       .  S
C1773      C1774   1.425       .  A
C1774      F1778   1.356       .  S
C1775      C1780   1.405       .  A
C1775      C1784   1.401       .  A
C1780      C1781   1.400       .  A
C1780      F1785   1.357       .  S
C1781      C1782   1.405       .  A
C1781      H1786   1.083       .  S
C1782      C1783   1.412       .  A
C1783      C1784   1.399       .  A
C1783      F1787   1.357       .  S
C1784      H1788   1.083       .  S
C1789      C1790   1.402       .  A
C1789      C1794   1.395       .  A
C1789      H1799   1.083       .  S
C1790      C1795   1.474       .  S
C1790      C1791   1.406       .  A
C1791      C1792   1.398       .  A
C1791      F1796   1.358       .  S
C1792      C1793   1.403       .  A
C1792      H1797   1.083       .  S
C1793      C1794   1.404       .  A
C1794      F1798   1.357       .  S
C1795      C1800   1.399       .  A
C1795      C1804   1.399       .  A
C1800      C1801   1.392       .  A
C1800      F1805   1.358       .  S
C1801      C1802   1.417       .  A
C1801      H1806   1.079       .  S
C1802      C1803   1.420       .  A
C1803      C1804   1.398       .  A
C1803      F1807   1.357       .  S
C1804      H1808   1.083       .  S
C1809      C1810   1.411       .  A
C1809      C1814   1.399       .  A
C1809      H1819   1.078       .  S
C1810      C1815   1.514       .  S
C1810      C1811   1.415       .  A
C1811      C1812   1.399       .  A
C1811      F1816   1.356       .  S
C1812      C1813   1.413       .  A
C1812      H1817   1.081       .  S
C1813      C1814   1.414       .  A
C1814      F1818   1.358       .  S
C1815      C1820   1.418       .  A
C1815      C1824   1.415       .  A
C1820      C1821   1.398       .  A
C1820      F1825   1.355       .  S
C1821      C1822   1.404       .  A
C1821      H1826   1.084       .  S
C1822      C1823   1.405       .  A
C1823      C1824   1.400       .  A
C1823      F1827   1.358       .  S
C1824      H1828   1.079       .  S
C1829      C1830   1.399       .  A
C1829      C1834   1.397       .  A
C1829      H1839   1.083       .  S
C1830      C1835   1.482       .  S
C1830      C1831   1.403       .  A
C1831      C1832   1.399       .  A
C1831      F1836   1.357       .  S
C1832      C1833   1.415       .  A
C1832      H1837   1.083       .  S
C1833      C1834   1.423       .  A
C1834      F1838   1.356       .  S
C1835      C1840   1.407       .  A
C1835      C1844   1.405       .  A
C1840      C1841   1.399       .  A
C1840      F1845   1.357       .  S
C1841      C1842   1.404       .  A
C1841      H1846   1.083       .  S
C1842      C1843   1.403       .  A
C1843      C1844   1.398       .  A
C1843      F1847   1.357       .  S
C1844      H1848   1.083       .  S
C1849      C1850   1.408       .  A
C1849      C1854   1.398       .  A
C1849      H1859   1.083       .  S
C1850      C1855   1.490       .  S
C1850      C1851   1.411       .  A
C1851      C1852   1.399       .  A
C1851      F1856   1.357       .  S
C1852      C1853   1.401       .  A
C1852      H1857   1.083       .  S
C1853      C1854   1.403       .  A
C1854      F1858   1.357       .  S
C1855      C1860   1.406       .  A
C1855      C1864   1.403       .  A
C1860      C1861   1.398       .  A
C1860      F1865   1.357       .  S
C1861      C1862   1.415       .  A
C1861      H1866   1.078       .  S
C1862      C1863   1.419       .  A
C1863      C1864   1.397       .  A
C1863      F1867   1.358       .  S
C1864      H1868   1.083       .  S
C1869      C1870   1.409       .  A
C1869      C1874   1.398       .  A
C1869      H1879   1.083       .  S
C1870      C1875   1.496       .  S
C1870      C1871   1.413       .  A
C1871      C1872   1.401       .  A
C1871      F1876   1.357       .  S
C1872      C1873   1.403       .  A
C1872      H1877   1.083       .  S
C1873      C1874   1.402       .  A
C1874      F1878   1.357       .  S
C1875      C1880   1.406       .  A
C1875      C1884   1.405       .  A
C1880      C1881   1.399       .  A
C1880      F1885   1.357       .  S
C1881      C1882   1.417       .  A
C1881      H1886   1.077       .  S
C1882      C1883   1.418       .  A
C1883      C1884   1.398       .  A
C1883      F1887   1.357       .  S
C1884      H1888   1.083       .  S
C1889      C1890   1.406       .  A
C1889      C1894   1.399       .  A
C1889      H1899   1.083       .  S
C1890      C1895   1.488       .  S
C1890      C1891   1.409       .  A
C1891      C1892   1.400       .  A
C1891      F1896   1.357       .  S
C1892      C1893   1.404       .  A
C1892      H1897   1.083       .  S
C1893      C1894   1.407       .  A
C1894      F1898   1.358       .  S
C1895      C1900   1.405       .  A
C1895      C1904   1.400       .  A
C1900      C1901   1.401       .  A
C1900      F1905   1.358       .  S
C1901      C1902   1.416       .  A
C1901      H1906   1.080       .  S
C1902      C1903   1.419       .  A
C1903      C1904   1.397       .  A
C1903      F1907   1.357       .  S
C1904      H1908   1.083       .  S
C1909      C1910   1.401       .  A
C1909      C1914   1.399       .  A
C1909      H1919   1.083       .  S
C1910      C1915   1.481       .  S
C1910      C1911   1.401       .  A
C1911      C1912   1.395       .  A
C1911      F1916   1.358       .  S
C1912      C1913   1.417       .  A
C1912      H1917   1.083       .  S
C1913      C1914   1.422       .  A
C1914      F1918   1.355       .  S
C1915      C1920   1.407       .  A
C1915      C1924   1.406       .  A
C1920      C1921   1.396       .  A
C1920      F1925   1.357       .  S
C1921      C1922   1.400       .  A
C1921      H1926   1.083       .  S
C1922      C1923   1.403       .  A
C1923      C1924   1.399       .  A
C1923      F1927   1.357       .  S
C1924      H1928   1.083       .  S
C1929      C1930   1.401       .  A
C1929      C1934   1.400       .  A
C1929      H1939   1.083       .  S
C1930      C1935   1.488       .  S
C1930      C1931   1.403       .  A
C1931      C1932   1.401       .  A
C1931      F1936   1.358       .  S
C1932      C1933   1.419       .  A
C1932      H1937   1.079       .  S
C1933      C1934   1.419       .  A
C1934      F1938   1.357       .  S
C1935      C1940   1.408       .  A
C1935      C1944   1.406       .  A
C1940      C1941   1.401       .  A
C1940      F1945   1.358       .  S
C1941      C1942   1.406       .  A
C1941      H1946   1.083       .  S
C1942      C1943   1.405       .  A
C1943      C1944   1.401       .  A
C1943      F1947   1.357       .  S
C1944      H1948   1.083       .  S
C1949      C1950   1.401       .  A
C1949      C1954   1.397       .  A
C1949      H1959   1.083       .  S
C1950      C1955   1.486       .  S
C1950      C1951   1.405       .  A
C1951      C1952   1.398       .  A
C1951      F1956   1.357       .  S
C1952      C1953   1.413       .  A
C1952      H1957   1.080       .  S
C1953      C1954   1.419       .  A
C1954      F1958   1.357       .  S
C1955      C1960   1.410       .  A
C1955      C1964   1.406       .  A
C1960      C1961   1.401       .  A
C1960      F1965   1.358       .  S
C1961      C1962   1.403       .  A
C1961      H1966   1.083       .  S
C1962      C1963   1.402       .  A
C1963      C1964   1.397       .  A
C1963      F1967   1.357       .  S
C1964      H1968   1.083       .  S
C1969      C1970   1.402       .  A
C1969      C1974   1.398       .  A
C1969      H1979   1.083       .  S
C1970      C1975   1.491       .  S
C1970      C1971   1.406       .  A
C1971      C1972   1.400       .  A
C1971      F1976   1.357       .  S
C1972      C1973   1.414       .  A
C1972      H1977   1.079       .  S
C1973      C1974   1.420       .  A
C1974      F1978   1.357       .  S
C1975      C1980   1.411       .  A
C1975      C1984   1.408       .  A
C1980      C1981   1.399       .  A
C1980      F1985   1.357       .  S
C1981      C1982   1.402       .  A
C1981      H1986   1.083       .  S
C1982      C1983   1.404       .  A
C1983      C1984   1.399       .  A
C1983      F1987   1.358       .  S
C1984      H1988   1.083       .  S
C1989      C1990   1.402       .  A
C1989      C1994   1.401       .  A
C1989      H1999   1.083       .  S
C1990      C1995   1.491       .  S
C1990      C1991   1.404       .  A
C1991      C1992   1.401       .  A
C1991      F1996   1.357       .  S
C1992      C1993   1.418       .  A
C1992      H1997   1.079       .  S
C1993      C1994   1.419       .  A
C1994      F1998   1.357       .  S
C1995      C2000   1.409       .  A
C1995      C2004   1.407       .  A
C2000      C2001   1.402       .  A
C2000      F2005   1.357       .  S
C2001      C2002   1.404       .  A
C2001      H2006   1.083       .  S
C2002      C2003   1.405       .  A
C2003      C2004   1.401       .  A
C2003      F2007   1.357       .  S
C2004      H2008   1.083       .  S
C2009      C2010   1.402       .  A
C2009      C2014   1.401       .  A
C2009      H2019   1.083       .  S
C2010      C2015   1.490       .  S
C2010      C2011   1.405       .  A
C2011      C2012   1.397       .  A
C2011      F2016   1.357       .  S
C2012      C2013   1.413       .  A
C2012      H2017   1.083       .  S
C2013      C2014   1.424       .  A
C2014      F2018   1.356       .  S
C2015      C2020   1.411       .  A
C2015      C2024   1.406       .  A
C2020      C2021   1.402       .  A
C2020      F2025   1.358       .  S
C2021      C2022   1.405       .  A
C2021      H2026   1.083       .  S
C2022      C2023   1.403       .  A
C2023      C2024   1.397       .  A
C2023      F2027   1.357       .  S
C2024      H2028   1.083       .  S
C2029      C2030   1.405       .  A
C2029      C2034   1.398       .  A
C2029      H2039   1.083       .  S
C2030      C2035   1.486       .  S
C2030      C2031   1.408       .  A
C2031      C2032   1.403       .  A
C2031      F2036   1.358       .  S
C2032      C2033   1.405       .  A
C2032      H2037   1.083       .  S
C2033      C2034   1.403       .  A
C2034      F2038   1.357       .  S
C2035      C2040   1.404       .  A
C2035      C2044   1.400       .  A
C2040      C2041   1.399       .  A
C2040      F2045   1.357       .  S
C2041      C2042   1.414       .  A
C2041      H2046   1.079       .  S
C2042      C2043   1.422       .  A
C2043      C2044   1.399       .  A
C2043      F2047   1.357       .  S
C2044      H2048   1.083       .  S
C2049      C2050   1.398       .  A
C2049      C2054   1.399       .  A
C2049      H2059   1.084       .  S
C2050      C2055   1.478       .  S
C2050      C2051   1.399       .  A
C2051      C2052   1.397       .  A
C2051      F2056   1.357       .  S
C2052      C2053   1.417       .  A
C2052      H2057   1.083       .  S
C2053      C2054   1.425       .  A
C2054      F2058   1.355       .  S
C2055      C2060   1.403       .  A
C2055      C2064   1.403       .  A
C2060      C2061   1.398       .  A
C2060      F2065   1.357       .  S
C2061      C2062   1.406       .  A
C2061      H2066   1.083       .  S
C2062      C2063   1.411       .  A
C2063      C2064   1.402       .  A
C2063      F2067   1.357       .  S
C2064      H2068   1.083       .  S
C2069      C2070   1.406       .  A
C2069      C2074   1.396       .  A
C2069      H2079   1.083       .  S
C2070      C2075   1.486       .  S
C2070      C2071   1.407       .  A
C2071      C2072   1.399       .  A
C2071      F2076   1.357       .  S
C2072      C2073   1.406       .  A
C2072      H2077   1.083       .  S
C2073      C2074   1.407       .  A
C2074      F2078   1.357       .  S
C2075      C2080   1.405       .  A
C2075      C2084   1.400       .  A
C2080      C2081   1.399       .  A
C2080      F2085   1.357       .  S
C2081      C2082   1.415       .  A
C2081      H2086   1.083       .  S
C2082      C2083   1.422       .  A
C2083      C2084   1.395       .  A
C2083      F2087   1.355       .  S
C2084      H2088   1.084       .  S
C2089      C2090   1.403       .  A
C2089      C2094   1.398       .  A
C2089      H2099   1.083       .  S
C2090      C2095   1.486       .  S
C2090      C2091   1.408       .  A
C2091      C2092   1.403       .  A
C2091      F2096   1.357       .  S
C2092      C2093   1.405       .  A
C2092      H2097   1.083       .  S
C2093      C2094   1.410       .  A
C2094      F2098   1.358       .  S
C2095      C2100   1.403       .  A
C2095      C2104   1.401       .  A
C2100      C2101   1.400       .  A
C2100      F2105   1.357       .  S
C2101      C2102   1.416       .  A
C2101      H2106   1.083       .  S
C2102      C2103   1.423       .  A
C2103      C2104   1.398       .  A
C2103      F2107   1.356       .  S
C2104      H2108   1.083       .  S
C2109      C2110   1.405       .  A
C2109      C2114   1.397       .  A
C2109      H2119   1.083       .  S
C2110      C2115   1.488       .  S
C2110      C2111   1.409       .  A
C2111      C2112   1.399       .  A
C2111      F2116   1.357       .  S
C2112      C2113   1.405       .  A
C2112      H2117   1.083       .  S
C2113      C2114   1.408       .  A
C2114      F2118   1.357       .  S
C2115      C2120   1.404       .  A
C2115      C2124   1.403       .  A
C2120      C2121   1.398       .  A
C2120      F2125   1.358       .  S
C2121      C2122   1.418       .  A
C2121      H2126   1.079       .  S
C2122      C2123   1.418       .  A
C2123      C2124   1.396       .  A
C2123      F2127   1.357       .  S
C2124      H2128   1.083       .  S
C2129      C2130   1.400       .  A
C2129      C2134   1.396       .  A
C2129      H2139   1.083       .  S
C2130      C2135   1.483       .  S
C2130      C2131   1.402       .  A
C2131      C2132   1.398       .  A
C2131      F2136   1.358       .  S
C2132      C2133   1.416       .  A
C2132      H2137   1.083       .  S
C2133      C2134   1.421       .  A
C2134      F2138   1.355       .  S
C2135      C2140   1.405       .  A
C2135      C2144   1.407       .  A
C2140      C2141   1.394       .  A
C2140      F2145   1.358       .  S
C2141      C2142   1.405       .  A
C2141      H2146   1.083       .  S
C2142      C2143   1.406       .  A
C2143      C2144   1.401       .  A
C2143      F2147   1.357       .  S
C2144      H2148   1.083       .  S
C2149      C2150   1.405       .  A
C2149      C2154   1.401       .  A
C2149      H2159   1.083       .  S
C2150      C2155   1.481       .  S
C2150      C2151   1.405       .  A
C2151      C2152   1.393       .  A
C2151      F2156   1.358       .  S
C2152      C2153   1.404       .  A
C2152      H2157   1.083       .  S
C2153      C2154   1.408       .  A
C2154      F2158   1.357       .  S
C2155      C2160   1.402       .  A
C2155      C2164   1.400       .  A
C2160      C2161   1.396       .  A
C2160      F2165   1.357       .  S
C2161      C2162   1.416       .  A
C2161      H2166   1.083       .  S
C2162      C2163   1.423       .  A
C2163      C2164   1.396       .  A
C2163      F2167   1.356       .  S
C2164      H2168   1.084       .  S
C2169      C2170   1.405       .  A
C2169      C2174   1.396       .  A
C2169      H2179   1.083       .  S
C2170      C2175   1.483       .  S
C2170      C2171   1.406       .  A
C2171      C2172   1.397       .  A
C2171      F2176   1.357       .  S
C2172      C2173   1.405       .  A
C2172      H2177   1.083       .  S
C2173      C2174   1.407       .  A
C2174      F2178   1.357       .  S
C2175      C2180   1.402       .  A
C2175      C2184   1.402       .  A
C2180      C2181   1.394       .  A
C2180      F2185   1.358       .  S
C2181      C2182   1.416       .  A
C2181      H2186   1.079       .  S
C2182      C2183   1.418       .  A
C2183      C2184   1.397       .  A
C2183      F2187   1.358       .  S
C2184      H2188   1.083       .  S
C2189      C2190   1.400       .  A
C2189      C2194   1.400       .  A
C2189      H2199   1.083       .  S
C2190      C2195   1.479       .  S
C2190      C2191   1.400       .  A
C2191      C2192   1.396       .  A
C2191      F2196   1.358       .  S
C2192      C2193   1.416       .  A
C2192      H2197   1.078       .  S
C2193      C2194   1.421       .  A
C2194      F2198   1.357       .  S
C2195      C2200   1.406       .  A
C2195      C2204   1.404       .  A
C2200      C2201   1.400       .  A
C2200      F2205   1.357       .  S
C2201      C2202   1.404       .  A
C2201      H2206   1.083       .  S
C2202      C2203   1.403       .  A
C2203      C2204   1.397       .  A
C2203      F2207   1.357       .  S
C2204      H2208   1.083       .  S
C2209      C2210   1.404       .  A
C2209      C2214   1.399       .  A
C2209      H2219   1.082       .  S
C2210      C2215   1.496       .  S
C2210      C2211   1.407       .  A
C2211      C2212   1.401       .  A
C2211      F2216   1.358       .  S
C2212      C2213   1.416       .  A
C2212      H2217   1.079       .  S
C2213      C2214   1.418       .  A
C2214      F2218   1.357       .  S
C2215      C2220   1.412       .  A
C2215      C2224   1.407       .  A
C2220      C2221   1.403       .  A
C2220      F2225   1.357       .  S
C2221      C2222   1.404       .  A
C2221      H2226   1.083       .  S
C2222      C2223   1.406       .  A
C2223      C2224   1.400       .  A
C2223      F2227   1.357       .  S
C2224      H2228   1.083       .  S
C2229      C2230   1.400       .  A
C2229      C2234   1.398       .  A
C2229      H2239   1.083       .  S
C2230      C2235   1.485       .  S
C2230      C2231   1.403       .  A
C2231      C2232   1.396       .  A
C2231      F2236   1.357       .  S
C2232      C2233   1.415       .  A
C2232      H2237   1.083       .  S
C2233      C2234   1.424       .  A
C2234      F2238   1.355       .  S
C2235      C2240   1.409       .  A
C2235      C2244   1.407       .  A
C2240      C2241   1.397       .  A
C2240      F2245   1.357       .  S
C2241      C2242   1.402       .  A
C2241      H2246   1.083       .  S
C2242      C2243   1.403       .  A
C2243      C2244   1.397       .  A
C2243      F2247   1.357       .  S
C2244      H2248   1.083       .  S
C2249      C2250   1.402       .  A
C2249      C2254   1.399       .  A
C2249      H2259   1.083       .  S
C2250      C2255   1.486       .  S
C2250      C2251   1.402       .  A
C2251      C2252   1.398       .  A
C2251      F2256   1.358       .  S
C2252      C2253   1.418       .  A
C2252      H2257   1.078       .  S
C2253      C2254   1.419       .  A
C2254      F2258   1.357       .  S
C2255      C2260   1.408       .  A
C2255      C2264   1.404       .  A
C2260      C2261   1.399       .  A
C2260      F2265   1.357       .  S
C2261      C2262   1.405       .  A
C2261      H2266   1.083       .  S
C2262      C2263   1.408       .  A
C2263      C2264   1.399       .  A
C2263      F2267   1.357       .  S
C2264      H2268   1.083       .  S
C2269      C2270   1.404       .  A
C2269      C2274   1.393       .  A
C2269      H2279   1.083       .  S
C2270      C2275   1.476       .  S
C2270      C2271   1.406       .  A
C2271      C2272   1.398       .  A
C2271      F2276   1.357       .  S
C2272      C2273   1.404       .  A
C2272      H2277   1.083       .  S
C2273      C2274   1.402       .  A
C2274      F2278   1.357       .  S
C2275      C2280   1.400       .  A
C2275      C2284   1.400       .  A
C2280      C2281   1.392       .  A
C2280      F2285   1.358       .  S
C2281      C2282   1.416       .  A
C2281      H2286   1.079       .  S
C2282      C2283   1.419       .  A
C2283      C2284   1.398       .  A
C2283      F2287   1.357       .  S
C2284      H2288   1.083       .  S
C2289      C2290   1.409       .  A
C2289      C2294   1.396       .  A
C2289      H2299   1.081       .  S
C2290      C2295   1.496       .  S
C2290      C2291   1.412       .  A
C2291      C2292   1.395       .  A
C2291      F2296   1.357       .  S
C2292      C2293   1.404       .  A
C2292      H2297   1.083       .  S
C2293      C2294   1.408       .  A
C2294      F2298   1.358       .  S
C2295      C2300   1.409       .  A
C2295      C2304   1.406       .  A
C2300      C2301   1.396       .  A
C2300      F2305   1.357       .  S
C2301      C2302   1.414       .  A
C2301      H2306   1.082       .  S
C2302      C2303   1.417       .  A
C2303      C2304   1.394       .  A
C2303      F2307   1.355       .  S
C2304      H2308   1.080       .  S
C2309      C2310   1.404       .  A
C2309      C2314   1.398       .  A
C2309      H2319   1.083       .  S
C2310      C2315   1.479       .  S
C2310      C2311   1.406       .  A
C2311      C2312   1.400       .  A
C2311      F2316   1.357       .  S
C2312      C2313   1.402       .  A
C2312      H2317   1.083       .  S
C2313      C2314   1.404       .  A
C2314      F2318   1.357       .  S
C2315      C2320   1.400       .  A
C2315      C2324   1.400       .  A
C2320      C2321   1.396       .  A
C2320      F2325   1.358       .  S
C2321      C2322   1.417       .  A
C2321      H2326   1.079       .  S
C2322      C2323   1.420       .  A
C2323      C2324   1.401       .  A
C2323      F2327   1.357       .  S
C2324      H2328   1.083       .  S
C2329      C2330   1.406       .  A
C2329      C2334   1.397       .  A
C2329      H2339   1.081       .  S
C2330      C2335   1.501       .  S
C2330      C2331   1.411       .  A
C2331      C2332   1.396       .  A
C2331      F2336   1.357       .  S
C2332      C2333   1.412       .  A
C2332      H2337   1.077       .  S
C2333      C2334   1.418       .  A
C2334      F2338   1.357       .  S
C2335      C2340   1.415       .  A
C2335      C2344   1.409       .  A
C2340      C2341   1.398       .  A
C2340      F2345   1.357       .  S
C2341      C2342   1.404       .  A
C2341      H2346   1.083       .  S
C2342      C2343   1.406       .  A
C2343      C2344   1.396       .  A
C2343      F2347   1.358       .  S
C2344      H2348   1.080       .  S
C2349      C2350   1.407       .  A
C2349      C2354   1.399       .  A
C2349      H2359   1.083       .  S
C2350      C2355   1.492       .  S
C2350      C2351   1.411       .  A
C2351      C2352   1.402       .  A
C2351      F2356   1.358       .  S
C2352      C2353   1.404       .  A
C2352      H2357   1.083       .  S
C2353      C2354   1.403       .  A
C2354      F2358   1.357       .  S
C2355      C2360   1.406       .  A
C2355      C2364   1.402       .  A
C2360      C2361   1.400       .  A
C2360      F2365   1.357       .  S
C2361      C2362   1.414       .  A
C2361      H2366   1.082       .  S
C2362      C2363   1.422       .  A
C2363      C2364   1.400       .  A
C2363      F2367   1.356       .  S
C2364      H2368   1.083       .  S
C2369      C2370   1.403       .  A
C2369      C2374   1.399       .  A
C2369      H2379   1.083       .  S
C2370      C2375   1.472       .  S
C2370      C2371   1.404       .  A
C2371      C2372   1.396       .  A
C2371      F2376   1.358       .  S
C2372      C2373   1.403       .  A
C2372      H2377   1.083       .  S
C2373      C2374   1.406       .  A
C2374      F2378   1.357       .  S
C2375      C2380   1.397       .  A
C2375      C2384   1.399       .  A
C2380      C2381   1.393       .  A
C2380      F2385   1.358       .  S
C2381      C2382   1.418       .  A
C2381      H2386   1.078       .  S
C2382      C2383   1.419       .  A
C2383      C2384   1.401       .  A
C2383      F2387   1.357       .  S
C2384      H2388   1.083       .  S
C2389      C2390   1.402       .  A
C2389      C2394   1.396       .  A
C2389      H2399   1.082       .  S
C2390      C2395   1.491       .  S
C2390      C2391   1.406       .  A
C2391      C2392   1.395       .  A
C2391      F2396   1.358       .  S
C2392      C2393   1.417       .  A
C2392      H2397   1.083       .  S
C2393      C2394   1.422       .  A
C2394      F2398   1.353       .  S
C2395      C2400   1.412       .  A
C2395      C2404   1.407       .  A
C2400      C2401   1.398       .  A
C2400      F2405   1.357       .  S
C2401      C2402   1.402       .  A
C2401      H2406   1.083       .  S
C2402      C2403   1.404       .  A
C2403      C2404   1.396       .  A
C2403      F2407   1.357       .  S
C2404      H2408   1.082       .  S
C2409      C2410   1.403       .  A
C2409      C2414   1.395       .  A
C2409      H2419   1.082       .  S
C2410      C2415   1.494       .  S
C2410      C2411   1.408       .  A
C2411      C2412   1.397       .  A
C2411      F2416   1.357       .  S
C2412      C2413   1.414       .  A
C2412      H2417   1.080       .  S
C2413      C2414   1.419       .  A
C2414      F2418   1.357       .  S
C2415      C2420   1.412       .  A
C2415      C2424   1.409       .  A
C2420      C2421   1.396       .  A
C2420      F2425   1.357       .  S
C2421      C2422   1.403       .  A
C2421      H2426   1.084       .  S
C2422      C2423   1.404       .  A
C2423      C2424   1.398       .  A
C2423      F2427   1.357       .  S
C2424      H2428   1.082       .  S
C2429      C2430   1.410       .  A
C2429      C2434   1.403       .  A
C2429      H2439   1.082       .  S
C2430      C2435   1.505       .  S
C2430      C2431   1.414       .  A
C2431      C2432   1.403       .  A
C2431      F2436   1.357       .  S
C2432      C2433   1.404       .  A
C2432      H2437   1.083       .  S
C2433      C2434   1.407       .  A
C2434      F2438   1.357       .  S
C2435      C2440   1.409       .  A
C2435      C2444   1.406       .  A
C2440      C2441   1.401       .  A
C2440      F2445   1.357       .  S
C2441      C2442   1.415       .  A
C2441      H2446   1.083       .  S
C2442      C2443   1.421       .  A
C2443      C2444   1.402       .  A
C2443      F2447   1.355       .  S
C2444      H2448   1.082       .  S
C2449      C2450   1.406       .  A
C2449      C2454   1.397       .  A
C2449      H2459   1.081       .  S
C2450      C2455   1.503       .  S
C2450      C2451   1.412       .  A
C2451      C2452   1.399       .  A
C2451      F2456   1.356       .  S
C2452      C2453   1.413       .  A
C2452      H2457   1.078       .  S
C2453      C2454   1.417       .  A
C2454      F2458   1.357       .  S
C2455      C2460   1.415       .  A
C2455      C2464   1.410       .  A
C2460      C2461   1.396       .  A
C2460      F2465   1.357       .  S
C2461      C2462   1.403       .  A
C2461      H2466   1.083       .  S
C2462      C2463   1.408       .  A
C2463      C2464   1.399       .  A
C2463      F2467   1.358       .  S
C2464      H2468   1.080       .  S
C2469      C2470   1.404       .  A
C2469      C2474   1.400       .  A
C2469      H2479   1.083       .  S
C2470      C2475   1.481       .  S
C2470      C2471   1.407       .  A
C2471      C2472   1.396       .  A
C2471      F2476   1.358       .  S
C2472      C2473   1.404       .  A
C2472      H2477   1.083       .  S
C2473      C2474   1.408       .  A
C2474      F2478   1.357       .  S
C2475      C2480   1.400       .  A
C2475      C2484   1.402       .  A
C2480      C2481   1.393       .  A
C2480      F2485   1.358       .  S
C2481      C2482   1.417       .  A
C2481      H2486   1.078       .  S
C2482      C2483   1.419       .  A
C2483      C2484   1.402       .  A
C2483      F2487   1.358       .  S
C2484      H2488   1.083       .  S
C2489      C2490   1.399       .  A
C2489      C2494   1.397       .  A
C2489      H2499   1.084       .  S
C2490      C2495   1.489       .  S
C2490      C2491   1.406       .  A
C2491      C2492   1.405       .  A
C2491      F2496   1.357       .  S
C2492      C2493   1.417       .  A
C2492      H2497   1.083       .  S
C2493      C2494   1.422       .  A
C2494      F2498   1.355       .  S
C2495      C2500   1.410       .  A
C2495      C2504   1.403       .  A
C2500      C2501   1.402       .  A
C2500      F2505   1.358       .  S
C2501      C2502   1.404       .  A
C2501      H2506   1.083       .  S
C2502      C2503   1.409       .  A
C2503      C2504   1.402       .  A
C2503      F2507   1.357       .  S
C2504      H2508   1.083       .  S
C2509      C2510   1.404       .  A
C2509      C2514   1.399       .  A
C2509      H2519   1.083       .  S
C2510      C2515   1.478       .  S
C2510      C2511   1.405       .  A
C2511      C2512   1.396       .  A
C2511      F2516   1.358       .  S
C2512      C2513   1.405       .  A
C2512      H2517   1.083       .  S
C2513      C2514   1.407       .  A
C2514      F2518   1.357       .  S
C2515      C2520   1.399       .  A
C2515      C2524   1.400       .  A
C2520      C2521   1.396       .  A
C2520      F2525   1.357       .  S
C2521      C2522   1.417       .  A
C2521      H2526   1.083       .  S
C2522      C2523   1.422       .  A
C2523      C2524   1.398       .  A
C2523      F2527   1.355       .  S
C2524      H2528   1.084       .  S
C2529      C2530   1.408       .  A
C2529      C2534   1.399       .  A
C2529      H2539   1.082       .  S
C2530      C2535   1.496       .  S
C2530      C2531   1.413       .  A
C2531      C2532   1.402       .  A
C2531      F2536   1.357       .  S
C2532      C2533   1.401       .  A
C2532      H2537   1.083       .  S
C2533      C2534   1.403       .  A
C2534      F2538   1.358       .  S
C2535      C2540   1.406       .  A
C2535      C2544   1.404       .  A
C2540      C2541   1.398       .  A
C2540      F2545   1.358       .  S
C2541      C2542   1.417       .  A
C2541      H2546   1.079       .  S
C2542      C2543   1.418       .  A
C2543      C2544   1.400       .  A
C2543      F2547   1.357       .  S
C2544      H2548   1.083       .  S
C2549      C2550   1.406       .  A
C2549      C2554   1.402       .  A
C2549      H2559   1.083       .  S
C2550      C2555   1.489       .  S
C2550      C2551   1.410       .  A
C2551      C2552   1.400       .  A
C2551      F2556   1.357       .  S
C2552      C2553   1.402       .  A
C2552      H2557   1.083       .  S
C2553      C2554   1.405       .  A
C2554      F2558   1.357       .  S
C2555      C2560   1.402       .  A
C2555      C2564   1.403       .  A
C2560      C2561   1.396       .  A
C2560      F2565   1.357       .  S
C2561      C2562   1.415       .  A
C2561      H2566   1.082       .  S
C2562      C2563   1.422       .  A
C2563      C2564   1.405       .  A
C2563      F2567   1.356       .  S
C2564      H2568   1.083       .  S
C2569      C2570   1.405       .  A
C2569      C2574   1.402       .  A
C2569      H2579   1.083       .  S
C2570      C2575   1.484       .  S
C2570      C2571   1.407       .  A
C2571      C2572   1.401       .  A
C2571      F2576   1.357       .  S
C2572      C2573   1.404       .  A
C2572      H2577   1.083       .  S
C2573      C2574   1.406       .  A
C2574      F2578   1.357       .  S
C2575      C2580   1.401       .  A
C2575      C2584   1.399       .  A
C2580      C2581   1.401       .  A
C2580      F2585   1.357       .  S
C2581      C2582   1.418       .  A
C2581      H2586   1.083       .  S
C2582      C2583   1.424       .  A
C2583      C2584   1.400       .  A
C2583      F2587   1.355       .  S
C2584      H2588   1.084       .  S
C2589      C2590   1.407       .  A
C2589      C2594   1.400       .  A
C2589      H2599   1.083       .  S
C2590      C2595   1.489       .  S
C2590      C2591   1.409       .  A
C2591      C2592   1.401       .  A
C2591      F2596   1.357       .  S
C2592      C2593   1.403       .  A
C2592      H2597   1.083       .  S
C2593      C2594   1.404       .  A
C2594      F2598   1.357       .  S
C2595      C2600   1.403       .  A
C2595      C2604   1.403       .  A
C2600      C2601   1.397       .  A
C2600      F2605   1.358       .  S
C2601      C2602   1.417       .  A
C2601      H2606   1.079       .  S
C2602      C2603   1.420       .  A
C2603      C2604   1.403       .  A
C2603      F2607   1.357       .  S
C2604      H2608   1.083       .  S
C2609      C2610   1.406       .  A
C2609      C2614   1.397       .  A
C2609      H2619   1.083       .  S
C2610      C2615   1.482       .  S
C2610      C2611   1.407       .  A
C2611      C2612   1.398       .  A
C2611      F2616   1.357       .  S
C2612      C2613   1.403       .  A
C2612      H2617   1.083       .  S
C2613      C2614   1.405       .  A
C2614      F2618   1.358       .  S
C2615      C2620   1.401       .  A
C2615      C2624   1.401       .  A
C2620      C2621   1.396       .  A
C2620      F2625   1.358       .  S
C2621      C2622   1.417       .  A
C2621      H2626   1.079       .  S
C2622      C2623   1.418       .  A
C2623      C2624   1.398       .  A
C2623      F2627   1.356       .  S
C2624      H2628   1.083       .  S
C2629      C2630   1.403       .  A
C2629      C2634   1.401       .  A
C2629      H2639   1.083       .  S
C2630      C2635   1.487       .  S
C2630      C2631   1.403       .  A
C2631      C2632   1.396       .  A
C2631      F2636   1.357       .  S
C2632      C2633   1.414       .  A
C2632      H2637   1.082       .  S
C2633      C2634   1.420       .  A
C2634      F2638   1.356       .  S
C2635      C2640   1.410       .  A
C2635      C2644   1.406       .  A
C2640      C2641   1.400       .  A
C2640      F2645   1.357       .  S
C2641      C2642   1.402       .  A
C2641      H2646   1.083       .  S
C2642      C2643   1.403       .  A
C2643      C2644   1.399       .  A
C2643      F2647   1.357       .  S
C2644      H2648   1.083       .  S
C2649      C2650   1.399       .  A
C2649      C2654   1.399       .  A
C2649      H2659   1.084       .  S
C2650      C2655   1.482       .  S
C2650      C2651   1.401       .  A
C2651      C2652   1.397       .  A
C2651      F2656   1.357       .  S
C2652      C2653   1.417       .  A
C2652      H2657   1.083       .  S
C2653      C2654   1.423       .  A
C2654      F2658   1.354       .  S
C2655      C2660   1.407       .  A
C2655      C2664   1.405       .  A
C2660      C2661   1.399       .  A
C2660      F2665   1.358       .  S
C2661      C2662   1.403       .  A
C2661      H2666   1.083       .  S
C2662      C2663   1.405       .  A
C2663      C2664   1.400       .  A
C2663      F2667   1.357       .  S
C2664      H2668   1.083       .  S
C2669      C2670   1.405       .  A
C2669      C2674   1.398       .  A
C2669      H2679   1.083       .  S
C2670      C2675   1.483       .  S
C2670      C2671   1.407       .  A
C2671      C2672   1.398       .  A
C2671      F2676   1.357       .  S
C2672      C2673   1.404       .  A
C2672      H2677   1.083       .  S
C2673      C2674   1.405       .  A
C2674      F2678   1.357       .  S
C2675      C2680   1.403       .  A
C2675      C2684   1.399       .  A
C2680      C2681   1.398       .  A
C2680      F2685   1.358       .  S
C2681      C2682   1.418       .  A
C2681      H2686   1.078       .  S
C2682      C2683   1.420       .  A
C2683      C2684   1.398       .  A
C2683      F2687   1.356       .  S
C2684      H2688   1.083       .  S
C2689      C2690   1.402       .  A
C2689      C2694   1.402       .  A
C2689      H2699   1.083       .  S
C2690      C2695   1.484       .  S
C2690      C2691   1.402       .  A
C2691      C2692   1.395       .  A
C2691      F2696   1.358       .  S
C2692      C2693   1.416       .  A
C2692      H2697   1.080       .  S
C2693      C2694   1.417       .  A
C2694      F2698   1.357       .  S
C2695      C2700   1.407       .  A
C2695      C2704   1.405       .  A
C2700      C2701   1.401       .  A
C2700      F2705   1.357       .  S
C2701      C2702   1.404       .  A
C2701      H2706   1.083       .  S
C2702      C2703   1.403       .  A
C2703      C2704   1.397       .  A
C2703      F2707   1.357       .  S
C2704      H2708   1.083       .  S
C2709      C2710   1.409       .  A
C2709      C2714   1.399       .  A
C2709      H2719   1.082       .  S
C2710      C2715   1.496       .  S
C2710      C2711   1.413       .  A
C2711      C2712   1.400       .  A
C2711      F2716   1.357       .  S
C2712      C2713   1.402       .  A
C2712      H2717   1.083       .  S
C2713      C2714   1.403       .  A
C2714      F2718   1.357       .  S
C2715      C2720   1.405       .  A
C2715      C2724   1.405       .  A
C2720      C2721   1.396       .  A
C2720      F2725   1.357       .  S
C2721      C2722   1.416       .  A
C2721      H2726   1.083       .  S
C2722      C2723   1.421       .  A
C2723      C2724   1.402       .  A
C2723      F2727   1.354       .  S
C2724      H2728   1.083       .  S
C2729      C2730   1.407       .  A
C2729      C2734   1.404       .  A
C2729      H2739   1.083       .  S
C2730      C2735   1.494       .  S
C2730      C2731   1.410       .  A
C2731      C2732   1.402       .  A
C2731      F2736   1.357       .  S
C2732      C2733   1.404       .  A
C2732      H2737   1.083       .  S
C2733      C2734   1.407       .  A
C2734      F2738   1.357       .  S
C2735      C2740   1.406       .  A
C2735      C2744   1.402       .  A
C2740      C2741   1.404       .  A
C2740      F2745   1.357       .  S
C2741      C2742   1.417       .  A
C2741      H2746   1.079       .  S
C2742      C2743   1.420       .  A
C2743      C2744   1.400       .  A
C2743      F2747   1.357       .  S
C2744      H2748   1.083       .  S
C2749      C2750   1.407       .  A
C2749      C2754   1.400       .  A
C2749      H2759   1.083       .  S
C2750      C2755   1.487       .  S
C2750      C2751   1.409       .  A
C2751      C2752   1.397       .  A
C2751      F2756   1.357       .  S
C2752      C2753   1.400       .  A
C2752      H2757   1.083       .  S
C2753      C2754   1.404       .  A
C2754      F2758   1.357       .  S
C2755      C2760   1.403       .  A
C2755      C2764   1.401       .  A
C2760      C2761   1.396       .  A
C2760      F2765   1.358       .  S
C2761      C2762   1.416       .  A
C2761      H2766   1.077       .  S
C2762      C2763   1.421       .  A
C2763      C2764   1.399       .  A
C2763      F2767   1.358       .  S
C2764      H2768   1.083       .  S
C2769      C2770   1.403       .  A
C2769      C2774   1.393       .  A
C2769      H2779   1.083       .  S
C2770      C2775   1.479       .  S
C2770      C2771   1.407       .  A
C2771      C2772   1.402       .  A
C2771      F2776   1.358       .  S
C2772      C2773   1.406       .  A
C2772      H2777   1.083       .  S
C2773      C2774   1.403       .  A
C2774      F2778   1.357       .  S
C2775      C2780   1.402       .  A
C2775      C2784   1.398       .  A
C2780      C2781   1.395       .  A
C2780      F2785   1.358       .  S
C2781      C2782   1.416       .  A
C2781      H2786   1.078       .  S
C2782      C2783   1.422       .  A
C2783      C2784   1.400       .  A
C2783      F2787   1.357       .  S
C2784      H2788   1.083       .  S
C2789      C2790   1.403       .  A
C2789      C2794   1.403       .  A
C2789      H2799   1.083       .  S
C2790      C2795   1.496       .  S
C2790      C2791   1.405       .  A
C2791      C2792   1.399       .  A
C2791      F2796   1.357       .  S
C2792      C2793   1.415       .  A
C2792      H2797   1.083       .  S
C2793      C2794   1.424       .  A
C2794      F2798   1.355       .  S
C2795      C2800   1.410       .  A
C2795      C2804   1.408       .  A
C2800      C2801   1.401       .  A
C2800      F2805   1.357       .  S
C2801      C2802   1.403       .  A
C2801      H2806   1.083       .  S
C2802      C2803   1.407       .  A
C2803      C2804   1.403       .  A
C2803      F2807   1.357       .  S
C2804      H2808   1.083       .  S
C2809      C2810   1.406       .  A
C2809      C2814   1.401       .  A
C2809      H2819   1.083       .  S
C2810      C2815   1.489       .  S
C2810      C2811   1.409       .  A
C2811      C2812   1.401       .  A
C2811      F2816   1.357       .  S
C2812      C2813   1.403       .  A
C2812      H2817   1.083       .  S
C2813      C2814   1.406       .  A
C2814      F2818   1.357       .  S
C2815      C2820   1.404       .  A
C2815      C2824   1.401       .  A
C2820      C2821   1.401       .  A
C2820      F2825   1.358       .  S
C2821      C2822   1.419       .  A
C2821      H2826   1.078       .  S
C2822      C2823   1.419       .  A
C2823      C2824   1.398       .  A
C2823      F2827   1.357       .  S
C2824      H2828   1.083       .  S
C2829      C2830   1.400       .  A
C2829      C2834   1.397       .  A
C2829      H2839   1.083       .  S
C2830      C2835   1.481       .  S
C2830      C2831   1.402       .  A
C2831      C2832   1.398       .  A
C2831      F2836   1.357       .  S
C2832      C2833   1.415       .  A
C2832      H2837   1.080       .  S
C2833      C2834   1.419       .  A
C2834      F2838   1.357       .  S
C2835      C2840   1.408       .  A
C2835      C2844   1.404       .  A
C2840      C2841   1.399       .  A
C2840      F2845   1.358       .  S
C2841      C2842   1.403       .  A
C2841      H2846   1.083       .  S
C2842      C2843   1.403       .  A
C2843      C2844   1.398       .  A
C2843      F2847   1.357       .  S
C2844      H2848   1.083       .  S
C2849      C2850   1.400       .  A
C2849      C2854   1.398       .  A
C2849      H2859   1.083       .  S
C2850      C2855   1.488       .  S
C2850      C2851   1.403       .  A
C2851      C2852   1.399       .  A
C2851      F2856   1.357       .  S
C2852      C2853   1.417       .  A
C2852      H2857   1.083       .  S
C2853      C2854   1.425       .  A
C2854      F2858   1.355       .  S
C2855      C2860   1.409       .  A
C2855      C2864   1.406       .  A
C2860      C2861   1.401       .  A
C2860      F2865   1.357       .  S
C2861      C2862   1.404       .  A
C2861      H2866   1.083       .  S
C2862      C2863   1.405       .  A
C2863      C2864   1.397       .  A
C2863      F2867   1.358       .  S
C2864      H2868   1.083       .  S
C2869      C2870   1.400       .  A
C2869      C2874   1.400       .  A
C2869      H2879   1.084       .  S
C2870      C2875   1.485       .  S
C2870      C2871   1.402       .  A
C2871      C2872   1.400       .  A
C2871      F2876   1.357       .  S
C2872      C2873   1.416       .  A
C2872      H2877   1.083       .  S
C2873      C2874   1.422       .  A
C2874      F2878   1.356       .  S
C2875      C2880   1.407       .  A
C2875      C2884   1.403       .  A
C2880      C2881   1.404       .  A
C2880      F2885   1.357       .  S
C2881      C2882   1.406       .  A
C2881      H2886   1.083       .  S
C2882      C2883   1.408       .  A
C2883      C2884   1.400       .  A
C2883      F2887   1.357       .  S
C2884      H2888   1.083       .  S
C2889      C2890   1.407       .  A
C2889      C2894   1.403       .  A
C2889      H2899   1.082       .  S
C2890      C2895   1.502       .  S
C2890      C2891   1.408       .  A
C2891      C2892   1.396       .  A
C2891      F2896   1.357       .  S
C2892      C2893   1.414       .  A
C2892      H2897   1.083       .  S
C2893      C2894   1.420       .  A
C2894      F2898   1.356       .  S
C2895      C2900   1.413       .  A
C2895      C2904   1.409       .  A
C2900      C2901   1.402       .  A
C2900      F2905   1.357       .  S
C2901      C2902   1.406       .  A
C2901      H2906   1.083       .  S
C2902      C2903   1.408       .  A
C2903      C2904   1.400       .  A
C2903      F2907   1.358       .  S
C2904      H2908   1.082       .  S
C2909      C2910   1.399       .  A
C2909      C2914   1.397       .  A
C2909      H2919   1.083       .  S
C2910      C2915   1.480       .  S
C2910      C2911   1.401       .  A
C2911      C2912   1.398       .  A
C2911      F2916   1.358       .  S
C2912      C2913   1.418       .  A
C2912      H2917   1.079       .  S
C2913      C2914   1.419       .  A
C2914      F2918   1.357       .  S
C2915      C2920   1.407       .  A
C2915      C2924   1.404       .  A
C2920      C2921   1.399       .  A
C2920      F2925   1.358       .  S
C2921      C2922   1.402       .  A
C2921      H2926   1.083       .  S
C2922      C2923   1.403       .  A
C2923      C2924   1.399       .  A
C2923      F2927   1.357       .  S
C2924      H2928   1.083       .  S
C2929      C2930   1.404       .  A
C2929      C2934   1.398       .  A
C2929      H2939   1.082       .  S
C2930      C2935   1.498       .  S
C2930      C2931   1.409       .  A
C2931      C2932   1.399       .  A
C2931      F2936   1.357       .  S
C2932      C2933   1.415       .  A
C2932      H2937   1.083       .  S
C2933      C2934   1.420       .  A
C2934      F2938   1.354       .  S
C2935      C2940   1.414       .  A
C2935      C2944   1.409       .  A
C2940      C2941   1.398       .  A
C2940      F2945   1.357       .  S
C2941      C2942   1.401       .  A
C2941      H2946   1.083       .  S
C2942      C2943   1.404       .  A
C2943      C2944   1.399       .  A
C2943      F2947   1.358       .  S
C2944      H2948   1.082       .  S
C2949      C2950   1.406       .  A
C2949      C2954   1.400       .  A
C2949      H2959   1.083       .  S
C2950      C2955   1.485       .  S
C2950      C2951   1.408       .  A
C2951      C2952   1.397       .  A
C2951      F2956   1.357       .  S
C2952      C2953   1.402       .  A
C2952      H2957   1.083       .  S
C2953      C2954   1.404       .  A
C2954      F2958   1.357       .  S
C2955      C2960   1.401       .  A
C2955      C2964   1.401       .  A
C2960      C2961   1.396       .  A
C2960      F2965   1.358       .  S
C2961      C2962   1.416       .  A
C2961      H2966   1.083       .  S
C2962      C2963   1.423       .  A
C2963      C2964   1.400       .  A
C2963      F2967   1.354       .  S
C2964      H2968   1.083       .  S
C2969      C2970   1.398       .  A
C2969      C2974   1.399       .  A
C2969      H2979   1.083       .  S
C2970      C2975   1.475       .  S
C2970      C2971   1.400       .  A
C2971      C2972   1.394       .  A
C2971      F2976   1.358       .  S
C2972      C2973   1.417       .  A
C2972      H2977   1.078       .  S
C2973      C2974   1.420       .  A
C2974      F2978   1.357       .  S
C2975      C2980   1.406       .  A
C2975      C2984   1.402       .  A
C2980      C2981   1.401       .  A
C2980      F2985   1.357       .  S
C2981      C2982   1.405       .  A
C2981      H2986   1.083       .  S
C2982      C2983   1.403       .  A
C2983      C2984   1.394       .  A
C2983      F2987   1.357       .  S
C2984      H2988   1.083       .  S
C2989      C2990   1.402       .  A
C2989      C2994   1.398       .  A
C2989      H2999   1.083       .  S
C2990      C2995   1.486       .  S
C2990      C2991   1.403       .  A
C2991      C2992   1.397       .  A
C2991      F2996   1.358       .  S
C2992      C2993   1.416       .  A
C2992      H2997   1.079       .  S
C2993      C2994   1.419       .  A
C2994      F2998   1.358       .  S
C2995      C3000   1.409       .  A
C2995      C3004   1.407       .  A
C3000      C3001   1.400       .  A
C3000      F3005   1.357       .  S
C3001      C3002   1.402       .  A
C3001      H3006   1.083       .  S
C3002      C3003   1.402       .  A
C3003      C3004   1.398       .  A
C3003      F3007   1.357       .  S
C3004      H3008   1.083       .  S
C3009      C3010   1.401       .  A
C3009      C3014   1.398       .  A
C3009      H3019   1.084       .  S
C3010      C3015   1.481       .  S
C3010      C3011   1.401       .  A
C3011      C3012   1.397       .  A
C3011      F3016   1.357       .  S
C3012      C3013   1.417       .  A
C3012      H3017   1.083       .  S
C3013      C3014   1.421       .  A
C3014      F3018   1.355       .  S
C3015      C3020   1.406       .  A
C3015      C3024   1.406       .  A
C3020      C3021   1.395       .  A
C3020      F3025   1.358       .  S
C3021      C3022   1.403       .  A
C3021      H3026   1.084       .  S
C3022      C3023   1.406       .  A
C3023      C3024   1.401       .  A
C3023      F3027   1.357       .  S
C3024      H3028   1.083       .  S
C3029      C3030   1.402       .  A
C3029      C3034   1.397       .  A
C3029      H3039   1.083       .  S
C3030      C3035   1.490       .  S
C3030      C3031   1.406       .  A
C3031      C3032   1.399       .  A
C3031      F3036   1.357       .  S
C3032      C3033   1.415       .  A
C3032      H3037   1.080       .  S
C3033      C3034   1.419       .  A
C3034      F3038   1.357       .  S
C3035      C3040   1.411       .  A
C3035      C3044   1.407       .  A
C3040      C3041   1.399       .  A
C3040      F3045   1.357       .  S
C3041      C3042   1.401       .  A
C3041      H3046   1.083       .  S
C3042      C3043   1.403       .  A
C3043      C3044   1.397       .  A
C3043      F3047   1.358       .  S
C3044      H3048   1.083       .  S
C3049      C3050   1.401       .  A
C3049      C3054   1.396       .  A
C3049      H3059   1.083       .  S
C3050      C3055   1.490       .  S
C3050      C3051   1.405       .  A
C3051      C3052   1.400       .  A
C3051      F3056   1.357       .  S
C3052      C3053   1.416       .  A
C3052      H3057   1.083       .  S
C3053      C3054   1.423       .  A
C3054      F3058   1.356       .  S
C3055      C3060   1.410       .  A
C3055      C3064   1.407       .  A
C3060      C3061   1.396       .  A
C3060      F3065   1.357       .  S
C3061      C3062   1.402       .  A
C3061      H3066   1.083       .  S
C3062      C3063   1.406       .  A
C3063      C3064   1.402       .  A
C3063      F3067   1.357       .  S
C3064      H3068   1.083       .  S
C3069      C3070   1.402       .  A
C3069      C3074   1.400       .  A
C3069      H3079   1.083       .  S
C3070      C3075   1.485       .  S
C3070      C3071   1.403       .  A
C3071      C3072   1.394       .  A
C3071      F3076   1.358       .  S
C3072      C3073   1.417       .  A
C3072      H3077   1.078       .  S
C3073      C3074   1.420       .  A
C3074      F3078   1.357       .  S
C3075      C3080   1.408       .  A
C3075      C3084   1.406       .  A
C3080      C3081   1.399       .  A
C3080      F3085   1.357       .  S
C3081      C3082   1.403       .  A
C3081      H3086   1.083       .  S
C3082      C3083   1.404       .  A
C3083      C3084   1.397       .  A
C3083      F3087   1.357       .  S
C3084      H3088   1.083       .  S
C3089      C3090   1.404       .  A
C3089      C3094   1.402       .  A
C3089      H3099   1.083       .  S
C3090      C3095   1.493       .  S
C3090      C3091   1.405       .  A
C3091      C3092   1.396       .  A
C3091      F3096   1.357       .  S
C3092      C3093   1.416       .  A
C3092      H3097   1.083       .  S
C3093      C3094   1.421       .  A
C3094      F3098   1.354       .  S
C3095      C3100   1.411       .  A
C3095      C3104   1.408       .  A
C3100      C3101   1.399       .  A
C3100      F3105   1.357       .  S
C3101      C3102   1.402       .  A
C3101      H3106   1.083       .  S
C3102      C3103   1.405       .  A
C3103      C3104   1.401       .  A
C3103      F3107   1.357       .  S
C3104      H3108   1.083       .  S
C3109      C3110   1.399       .  A
C3109      C3114   1.397       .  A
C3109      H3119   1.084       .  S
C3110      C3115   1.483       .  S
C3110      C3111   1.403       .  A
C3111      C3112   1.397       .  A
C3111      F3116   1.357       .  S
C3112      C3113   1.416       .  A
C3112      H3117   1.083       .  S
C3113      C3114   1.424       .  A
C3114      F3118   1.355       .  S
C3115      C3120   1.408       .  A
C3115      C3124   1.405       .  A
C3120      C3121   1.400       .  A
C3120      F3125   1.357       .  S
C3121      C3122   1.402       .  A
C3121      H3126   1.083       .  S
C3122      C3123   1.402       .  A
C3123      C3124   1.397       .  A
C3123      F3127   1.357       .  S
C3124      H3128   1.083       .  S
C3129      C3130   1.400       .  A
C3129      C3134   1.398       .  A
C3129      H3139   1.083       .  S
C3130      C3135   1.487       .  S
C3130      C3131   1.403       .  A
C3131      C3132   1.400       .  A
C3131      F3136   1.358       .  S
C3132      C3133   1.419       .  A
C3132      H3137   1.079       .  S
C3133      C3134   1.419       .  A
C3134      F3138   1.355       .  S
C3135      C3140   1.409       .  A
C3135      C3144   1.405       .  A
C3140      C3141   1.401       .  A
C3140      F3145   1.357       .  S
C3141      C3142   1.403       .  A
C3141      H3146   1.083       .  S
C3142      C3143   1.406       .  A
C3143      C3144   1.399       .  A
C3143      F3147   1.358       .  S
C3144      H3148   1.083       .  S
C3149      C3150   1.401       .  A
C3149      C3154   1.396       .  A
C3149      H3159   1.083       .  S
C3150      C3155   1.490       .  S
C3150      C3151   1.407       .  A
C3151      C3152   1.402       .  A
C3151      F3156   1.357       .  S
C3152      C3153   1.413       .  A
C3152      H3157   1.080       .  S
C3153      C3154   1.419       .  A
C3154      F3158   1.356       .  S
C3155      C3160   1.411       .  A
C3155      C3164   1.407       .  A
C3160      C3161   1.400       .  A
C3160      F3165   1.357       .  S
C3161      C3162   1.402       .  A
C3161      H3166   1.083       .  S
C3162      C3163   1.404       .  A
C3163      C3164   1.398       .  A
C3163      F3167   1.358       .  S
C3164      H3168   1.083       .  S
C3169      C3170   1.398       .  A
C3169      C3174   1.396       .  A
C3169      H3179   1.084       .  S
C3170      C3175   1.477       .  S
C3170      C3171   1.400       .  A
C3171      C3172   1.399       .  A
C3171      F3176   1.357       .  S
C3172      C3173   1.417       .  A
C3172      H3177   1.083       .  S
C3173      C3174   1.422       .  A
C3174      F3178   1.355       .  S
C3175      C3180   1.405       .  A
C3175      C3184   1.403       .  A
C3180      C3181   1.401       .  A
C3180      F3185   1.357       .  S
C3181      C3182   1.406       .  A
C3181      H3186   1.083       .  S
C3182      C3183   1.404       .  A
C3183      C3184   1.396       .  A
C3183      F3187   1.357       .  S
C3184      H3188   1.083       .  S
C3189      C3190   1.397       .  A
C3189      C3194   1.397       .  A
C3189      H3199   1.083       .  S
C3190      C3195   1.476       .  S
C3190      C3191   1.400       .  A
C3191      C3192   1.399       .  A
C3191      F3196   1.358       .  S
C3192      C3193   1.417       .  A
C3192      H3197   1.078       .  S
C3193      C3194   1.421       .  A
C3194      F3198   1.357       .  S
C3195      C3200   1.405       .  A
C3195      C3204   1.403       .  A
C3200      C3201   1.397       .  A
C3200      F3205   1.357       .  S
C3201      C3202   1.404       .  A
C3201      H3206   1.083       .  S
C3202      C3203   1.407       .  A
C3203      C3204   1.399       .  A
C3203      F3207   1.357       .  S
C3204      H3208   1.083       .  S
C3209      C3210   1.402       .  A
C3209      C3214   1.401       .  A
C3209      H3219   1.083       .  S
C3210      C3215   1.488       .  S
C3210      C3211   1.402       .  A
C3211      C3212   1.397       .  A
C3211      F3216   1.357       .  S
C3212      C3213   1.416       .  A
C3212      H3217   1.083       .  S
C3213      C3214   1.423       .  A
C3214      F3218   1.354       .  S
C3215      C3220   1.410       .  A
C3215      C3224   1.406       .  A
C3220      C3221   1.401       .  A
C3220      F3225   1.357       .  S
C3221      C3222   1.402       .  A
C3221      H3226   1.083       .  S
C3222      C3223   1.404       .  A
C3223      C3224   1.399       .  A
C3223      F3227   1.358       .  S
C3224      H3228   1.083       .  S
C3229      C3230   1.404       .  A
C3229      C3234   1.403       .  A
C3229      H3239   1.083       .  S
C3230      C3235   1.484       .  S
C3230      C3231   1.401       .  A
C3231      C3232   1.392       .  A
C3231      F3236   1.358       .  S
C3232      C3233   1.417       .  A
C3232      H3237   1.078       .  S
C3233      C3234   1.418       .  A
C3234      F3238   1.357       .  S
C3235      C3240   1.408       .  A
C3235      C3244   1.405       .  A
C3240      C3241   1.395       .  A
C3240      F3245   1.358       .  S
C3241      C3242   1.403       .  A
C3241      H3246   1.083       .  S
C3242      C3243   1.409       .  A
C3243      C3244   1.401       .  A
C3243      F3247   1.357       .  S
C3244      H3248   1.083       .  S
C3249      C3250   1.399       .  A
C3249      C3254   1.396       .  A
C3249      H3259   1.084       .  S
C3250      C3255   1.480       .  S
C3250      C3251   1.400       .  A
C3251      C3252   1.397       .  A
C3251      F3256   1.357       .  S
C3252      C3253   1.418       .  A
C3252      H3257   1.083       .  S
C3253      C3254   1.424       .  A
C3254      F3258   1.354       .  S
C3255      C3260   1.407       .  A
C3255      C3264   1.405       .  A
C3260      C3261   1.398       .  A
C3260      F3265   1.357       .  S
C3261      C3262   1.403       .  A
C3261      H3266   1.083       .  S
C3262      C3263   1.404       .  A
C3263      C3264   1.397       .  A
C3263      F3267   1.357       .  S
C3264      H3268   1.083       .  S
C3269      C3270   1.404       .  A
C3269      C3274   1.400       .  A
C3269      H3279   1.082       .  S
C3270      C3275   1.501       .  S
C3270      C3271   1.408       .  A
C3271      C3272   1.399       .  A
C3271      F3276   1.357       .  S
C3272      C3273   1.415       .  A
C3272      H3277   1.083       .  S
C3273      C3274   1.423       .  A
C3274      F3278   1.354       .  S
C3275      C3280   1.415       .  A
C3275      C3284   1.410       .  A
C3280      C3281   1.401       .  A
C3280      F3285   1.357       .  S
C3281      C3282   1.402       .  A
C3281      H3286   1.083       .  S
C3282      C3283   1.402       .  A
C3283      C3284   1.399       .  A
C3283      F3287   1.357       .  S
C3284      H3288   1.082       .  S
C3289      C3290   1.397       .  A
C3289      C3294   1.396       .  A
C3289      H3299   1.083       .  S
C3290      C3295   1.476       .  S
C3290      C3291   1.401       .  A
C3291      C3292   1.398       .  A
C3291      F3296   1.357       .  S
C3292      C3293   1.416       .  A
C3292      H3297   1.079       .  S
C3293      C3294   1.422       .  A
C3294      F3298   1.357       .  S
C3295      C3300   1.406       .  A
C3295      C3304   1.403       .  A
C3300      C3301   1.400       .  A
C3300      F3305   1.357       .  S
C3301      C3302   1.404       .  A
C3301      H3306   1.083       .  S
C3302      C3303   1.403       .  A
C3303      C3304   1.396       .  A
C3303      F3307   1.357       .  S
C3304      H3308   1.083       .  S
C3309      C3310   1.402       .  A
C3309      C3314   1.399       .  A
C3309      H3319   1.083       .  S
C3310      C3315   1.496       .  S
C3310      C3311   1.407       .  A
C3311      C3312   1.401       .  A
C3311      F3316   1.357       .  S
C3312      C3313   1.417       .  A
C3312      H3317   1.077       .  S
C3313      C3314   1.421       .  A
C3314      F3318   1.357       .  S
C3315      C3320   1.411       .  A
C3315      C3324   1.410       .  A
C3320      C3321   1.399       .  A
C3320      F3325   1.357       .  S
C3321      C3322   1.403       .  A
C3321      H3326   1.083       .  S
C3322      C3323   1.404       .  A
C3323      C3324   1.401       .  A
C3323      F3327   1.358       .  S
C3324      H3328   1.083       .  S
C3329      C3330   1.406       .  A
C3329      C3334   1.397       .  A
C3329      H3339   1.081       .  S
C3330      C3335   1.505       .  S
C3330      C3331   1.411       .  A
C3331      C3332   1.401       .  A
C3331      F3336   1.356       .  S
C3332      C3333   1.415       .  A
C3332      H3337   1.077       .  S
C3333      C3334   1.418       .  A
C3334      F3338   1.357       .  S
C3335      C3340   1.414       .  A
C3335      C3344   1.411       .  A
C3340      C3341   1.397       .  A
C3340      F3345   1.357       .  S
C3341      C3342   1.404       .  A
C3341      H3346   1.084       .  S
C3342      C3343   1.407       .  A
C3343      C3344   1.402       .  A
C3343      F3347   1.358       .  S
C3344      H3348   1.080       .  S
C3349      C3350   1.405       .  A
C3349      C3354   1.401       .  A
C3349      H3359   1.083       .  S
C3350      C3355   1.486       .  S
C3350      C3351   1.408       .  A
C3351      C3352   1.401       .  A
C3351      F3356   1.358       .  S
C3352      C3353   1.404       .  A
C3352      H3357   1.083       .  S
C3353      C3354   1.404       .  A
C3354      F3358   1.357       .  S
C3355      C3360   1.401       .  A
C3355      C3364   1.401       .  A
C3360      C3361   1.398       .  A
C3360      F3365   1.358       .  S
C3361      C3362   1.419       .  A
C3361      H3366   1.078       .  S
C3362      C3363   1.420       .  A
C3363      C3364   1.403       .  A
C3363      F3367   1.357       .  S
C3364      H3368   1.083       .  S
C3369      C3370   1.400       .  A
C3369      C3374   1.397       .  A
C3369      H3379   1.083       .  S
C3370      C3375   1.474       .  S
C3370      C3371   1.404       .  A
C3371      C3372   1.399       .  A
C3371      F3376   1.358       .  S
C3372      C3373   1.405       .  A
C3372      H3377   1.083       .  S
C3373      C3374   1.410       .  A
C3374      F3378   1.357       .  S
C3375      C3380   1.400       .  A
C3375      C3384   1.397       .  A
C3380      C3381   1.397       .  A
C3380      F3385   1.358       .  S
C3381      C3382   1.416       .  A
C3381      H3386   1.079       .  S
C3382      C3383   1.421       .  A
C3383      C3384   1.398       .  A
C3383      F3387   1.357       .  S
C3384      H3388   1.083       .  S
C3389      C3390   1.404       .  A
C3389      C3394   1.396       .  A
C3389      H3399   1.083       .  S
C3390      C3395   1.484       .  S
C3390      C3391   1.408       .  A
C3391      C3392   1.399       .  A
C3391      F3396   1.358       .  S
C3392      C3393   1.404       .  A
C3392      H3397   1.083       .  S
C3393      C3394   1.407       .  A
C3394      F3398   1.357       .  S
C3395      C3400   1.403       .  A
C3395      C3404   1.401       .  A
C3400      C3401   1.395       .  A
C3400      F3405   1.358       .  S
C3401      C3402   1.415       .  A
C3401      H3406   1.079       .  S
C3402      C3403   1.419       .  A
C3403      C3404   1.399       .  A
C3403      F3407   1.356       .  S
C3404      H3408   1.083       .  S
C3409      C3410   1.408       .  A
C3409      C3414   1.399       .  A
C3409      H3419   1.083       .  S
C3410      C3415   1.484       .  S
C3410      C3411   1.408       .  A
C3411      C3412   1.395       .  A
C3411      F3416   1.357       .  S
C3412      C3413   1.399       .  A
C3412      H3417   1.084       .  S
C3413      C3414   1.402       .  A
C3414      F3418   1.358       .  S
C3415      C3420   1.404       .  A
C3415      C3424   1.401       .  A
C3420      C3421   1.398       .  A
C3420      F3425   1.358       .  S
C3421      C3422   1.416       .  A
C3421      H3426   1.079       .  S
C3422      C3423   1.418       .  A
C3423      C3424   1.395       .  A
C3423      F3427   1.357       .  S
C3424      H3428   1.083       .  S
C3429      C3430   1.402       .  A
C3429      C3434   1.399       .  A
C3429      H3439   1.083       .  S
C3430      C3435   1.478       .  S
C3430      C3431   1.404       .  A
C3431      C3432   1.398       .  A
C3431      F3436   1.358       .  S
C3432      C3433   1.405       .  A
C3432      H3437   1.083       .  S
C3433      C3434   1.409       .  A
C3434      F3438   1.357       .  S
C3435      C3440   1.401       .  A
C3435      C3444   1.397       .  A
C3440      C3441   1.399       .  A
C3440      F3445   1.357       .  S
C3441      C3442   1.417       .  A
C3441      H3446   1.083       .  S
C3442      C3443   1.423       .  A
C3443      C3444   1.395       .  A
C3443      F3447   1.356       .  S
C3444      H3448   1.084       .  S
C3449      C3450   1.399       .  A
C3449      C3454   1.396       .  A
C3449      H3459   1.084       .  S
C3450      C3455   1.475       .  S
C3450      C3451   1.405       .  A
C3451      C3452   1.402       .  A
C3451      F3456   1.358       .  S
C3452      C3453   1.406       .  A
C3452      H3457   1.083       .  S
C3453      C3454   1.411       .  A
C3454      F3458   1.357       .  S
C3455      C3460   1.399       .  A
C3455      C3464   1.398       .  A
C3460      C3461   1.398       .  A
C3460      F3465   1.357       .  S
C3461      C3462   1.418       .  A
C3461      H3466   1.083       .  S
C3462      C3463   1.422       .  A
C3463      C3464   1.396       .  A
C3463      F3467   1.356       .  S
C3464      H3468   1.084       .  S
C3469      C3470   1.406       .  A
C3469      C3474   1.400       .  A
C3469      H3479   1.083       .  S
C3470      C3475   1.483       .  S
C3470      C3471   1.407       .  A
C3471      C3472   1.395       .  A
C3471      F3476   1.357       .  S
C3472      C3473   1.403       .  A
C3472      H3477   1.083       .  S
C3473      C3474   1.406       .  A
C3474      F3478   1.358       .  S
C3475      C3480   1.403       .  A
C3475      C3484   1.399       .  A
C3480      C3481   1.400       .  A
C3480      F3485   1.357       .  S
C3481      C3482   1.416       .  A
C3481      H3486   1.083       .  S
C3482      C3483   1.423       .  A
C3483      C3484   1.395       .  A
C3483      F3487   1.355       .  S
C3484      H3488   1.083       .  S
C3489      C3490   1.401       .  A
C3489      C3494   1.399       .  A
C3489      H3499   1.083       .  S
C3490      C3495   1.490       .  S
C3490      C3491   1.404       .  A
C3491      C3492   1.398       .  A
C3491      F3496   1.357       .  S
C3492      C3493   1.415       .  A
C3492      H3497   1.083       .  S
C3493      C3494   1.425       .  A
C3494      F3498   1.355       .  S
C3495      C3500   1.408       .  A
C3495      C3504   1.407       .  A
C3500      C3501   1.399       .  A
C3500      F3505   1.358       .  S
C3501      C3502   1.407       .  A
C3501      H3506   1.083       .  S
C3502      C3503   1.407       .  A
C3503      C3504   1.401       .  A
C3503      F3507   1.357       .  S
C3504      H3508   1.083       .  S
C3509      C3510   1.401       .  A
C3509      C3514   1.399       .  A
C3509      H3519   1.083       .  S
C3510      C3515   1.476       .  S
C3510      C3511   1.400       .  A
C3511      C3512   1.389       .  A
C3511      F3516   1.358       .  S
C3512      C3513   1.416       .  A
C3512      H3517   1.079       .  S
C3513      C3514   1.417       .  A
C3514      F3518   1.357       .  S
C3515      C3520   1.406       .  A
C3515      C3524   1.404       .  A
C3520      C3521   1.398       .  A
C3520      F3525   1.357       .  S
C3521      C3522   1.403       .  A
C3521      H3526   1.083       .  S
C3522      C3523   1.402       .  A
C3523      C3524   1.393       .  A
C3523      F3527   1.358       .  S
C3524      H3528   1.083       .  S
C3529      C3530   1.404       .  A
C3529      C3534   1.397       .  A
C3529      H3539   1.082       .  S
C3530      C3535   1.493       .  S
C3530      C3531   1.406       .  A
C3531      C3532   1.397       .  A
C3531      F3536   1.358       .  S
C3532      C3533   1.416       .  A
C3532      H3537   1.080       .  S
C3533      C3534   1.417       .  A
C3534      F3538   1.357       .  S
C3535      C3540   1.411       .  A
C3535      C3544   1.408       .  A
C3540      C3541   1.398       .  A
C3540      F3545   1.357       .  S
C3541      C3542   1.405       .  A
C3541      H3546   1.083       .  S
C3542      C3543   1.407       .  A
C3543      C3544   1.398       .  A
C3543      F3547   1.358       .  S
C3544      H3548   1.082       .  S
C3549      C3550   1.407       .  A
C3549      C3554   1.396       .  A
C3549      H3559   1.080       .  S
C3550      C3555   1.495       .  S
C3550      C3551   1.407       .  A
C3551      C3552   1.394       .  A
C3551      F3556   1.357       .  S
C3552      C3553   1.416       .  A
C3552      H3557   1.082       .  S
C3553      C3554   1.417       .  A
C3554      F3558   1.354       .  S
C3555      C3560   1.411       .  A
C3555      C3564   1.410       .  A
C3560      C3561   1.394       .  A
C3560      F3565   1.357       .  S
C3561      C3562   1.405       .  A
C3561      H3566   1.083       .  S
C3562      C3563   1.406       .  A
C3563      C3564   1.395       .  A
C3563      F3567   1.358       .  S
C3564      H3568   1.081       .  S
C3569      C3570   1.400       .  A
C3569      C3574   1.395       .  A
C3569      H3579   1.083       .  S
C3570      C3575   1.475       .  S
C3570      C3571   1.407       .  A
C3571      C3572   1.398       .  A
C3571      F3576   1.358       .  S
C3572      C3573   1.403       .  A
C3572      H3577   1.083       .  S
C3573      C3574   1.408       .  A
C3574      F3578   1.357       .  S
C3575      C3580   1.398       .  A
C3575      C3584   1.401       .  A
C3580      C3581   1.389       .  A
C3580      F3585   1.357       .  S
C3581      C3582   1.415       .  A
C3581      H3586   1.082       .  S
C3582      C3583   1.422       .  A
C3583      C3584   1.400       .  A
C3583      F3587   1.356       .  S
C3584      H3588   1.083       .  S
