geometry optimzed in LAMMPS
_audit_creation_date              2020-12-01 
_audit_creation_method            'lammps2cif' 
_symmetry_space_group_name_H-M    'P1' 
_symmetry_Int_Tables_number       1 
_symmetry_cell_setting            triclinic 
loop_ 
_symmetry_equiv_pos_as_xyz 
  x,y,z 
_cell_length_a                    33.87828632 
_cell_length_b                    33.75690097967189 
_cell_length_c                    43.102100648544074 
_cell_angle_alpha                 89.43844307269184 
_cell_angle_beta                  102.38182028193978 
_cell_angle_gamma                 98.17960101511099 
loop_ 
_atom_site_label 
_atom_site_type_symbol 
_atom_site_fract_x 
_atom_site_fract_y 
_atom_site_fract_z 
_atom_site_charge 
N1          N  0.51263298  0.28878179  0.96806569    -0.02600
C2          C  0.50399042  0.25673927  0.94762889     0.00000
C3          C  0.46613664  0.23578702  0.94866570    -0.22900
C4          C  0.45121923  0.25520612  0.97060508    -0.23100
C5          C  0.48038545  0.28747778  0.98224454    -0.00100
H6          H  0.45082936  0.20941648  0.93465394     0.13700
H7          H  0.42174109  0.24739177  0.97668408     0.13700
N8          N  0.37755974  0.49923433  0.08613562    -0.02600
C9          C  0.35601935  0.50653274  0.10795270     0.00000
C10         C  0.35696835  0.54741064  0.11152420    -0.22900
C11         C  0.38009364  0.56565375  0.09127013    -0.23100
C12         C  0.39232524  0.53524089  0.07603254    -0.00100
H13         H  0.34056589  0.56223578  0.12583338     0.13700
H14         H  0.38515548  0.59732922  0.08667199     0.13700
N15         N  0.51447310  0.67241156  0.88761747    -0.02600
C16         C  0.50936637  0.69703364  0.86246858     0.00000
C17         C  0.47030989  0.68855768  0.84410762    -0.22900
C18         C  0.45066292  0.65728616  0.85813912    -0.23100
C19         C  0.47843505  0.64747398  0.88453406    -0.00100
H20         H  0.45688615  0.70490620  0.82377392     0.13700
H21         H  0.41885749  0.64447917  0.85088282     0.13700
N22         N  0.74831187  0.50829689  0.02004663    -0.02600
C23         C  0.78821879  0.50658258  0.03307313     0.00000
C24         C  0.81194716  0.54265344  0.03039674    -0.22900
C25         C  0.78597142  0.56766442  0.01498503    -0.23100
C26         C  0.74716082  0.54600655  0.00856019    -0.00100
H27         H  0.84447502  0.55027307  0.03959109     0.13700
H28         H  0.79437333  0.59862449  0.00937846     0.13700
N29         N  0.24215732  0.94949775  0.50858159    -0.02600
C30         C  0.28057547  0.95088926  0.52651622     0.00000
C31         C  0.29755035  0.91787725  0.52016336    -0.22900
C32         C  0.26878507  0.89514693  0.49768212    -0.23100
C33         C  0.23509970  0.91510056  0.49073795    -0.00100
H34         H  0.32722241  0.91048875  0.53155033     0.13700
H35         H  0.27127042  0.86592935  0.48881855     0.13700
N36         N  0.02270961  0.12244484  0.45505267    -0.02600
C37         C  0.01958190  0.15566102  0.43719529     0.00000
C38         C  0.98225639  0.16842652  0.43573863    -0.22900
C39         C  0.96154360  0.14239233  0.45328263    -0.23100
C40         C  0.98681137  0.11444350  0.46474288    -0.00100
H41         H  0.97087895  0.19333166  0.42245428     0.13700
H42         H  0.93104150  0.14328244  0.45689944     0.13700
N43         N  0.85155928  0.90491792  0.58716241    -0.02600
C44         C  0.81957588  0.90311161  0.60195386     0.00000
C45         C  0.80390139  0.86370871  0.60575097    -0.22900
C46         C  0.82639189  0.84036211  0.59277678    -0.23100
C47         C  0.85494762  0.86607618  0.58104996    -0.00100
H48         H  0.77855666  0.85310280  0.61669946     0.13700
H49         H  0.82189578  0.80798353  0.59143462     0.13700
N50         N  0.02160781  0.68794069  0.45246142    -0.02600
C51         C  0.01893708  0.64929612  0.44260503     0.00000
C52         C  0.99015071  0.62499407  0.45517101    -0.22900
C53         C  0.97401612  0.64935173  0.47296363    -0.23100
C54         C  0.99372061  0.68774830  0.47096986    -0.00100
H55         H  0.98034790  0.59329116  0.45042362     0.13700
H56         H  0.94937586  0.64033181  0.48504372     0.13700
In57       In  0.58413236  0.03212202  0.74569142     1.36900
C58         C  0.57759501  0.96249733  0.77567607     0.78500
O59         O  0.64756866  0.01966997  0.74494537    -0.60000
O60         O  0.61823590  0.05071892  0.70629628    -0.50900
C61         C  0.51861578  0.02920892  0.69786121     0.71100
O62         O  0.54022724  0.00147083  0.70369260    -0.45700
C63         C  0.58251462  0.08666732  0.79062874     0.75800
O64         O  0.60952594  0.98789386  0.78149028    -0.57600
O65         O  0.60482027  0.09360387  0.77058127    -0.47700
O66         O  0.54961302  0.97267545  0.75416893    -0.54000
C67         C  0.64883632  0.03395287  0.71803795     0.86000
O68         O  0.53086083  0.05920082  0.71651670    -0.55900
O69         O  0.56119107  0.05278928  0.78690470    -0.59200
In70       In  0.06781688  0.40857129  0.23707843     1.36900
C71         C  0.06766221  0.46716786  0.27884586     0.78500
O72         O  0.03269986  0.43787669  0.19534972    -0.60000
O73         O  0.00605295  0.38172161  0.20858338    -0.50900
C74         C  0.12498955  0.40958720  0.20303784     0.71100
O75         O  0.11258654  0.44068106  0.21078061    -0.45700
C76         C  0.07246198  0.34503786  0.27433664     0.75800
O77         O  0.09943526  0.46065501  0.27025688    -0.57600
O78         O  0.04183792  0.34867381  0.25249232    -0.47700
O79         O  0.03637401  0.44328610  0.26630376    -0.54000
C80         C  0.00255074  0.41048836  0.18985931     0.86000
O81         O  0.10861542  0.37760634  0.21311437    -0.55900
O82         O  0.10099093  0.37406198  0.27684882    -0.59200
C83         C  0.06632545  0.49946873  0.30175302    -0.11100
C84         C  0.10021867  0.52875246  0.31442391     0.04400
C85         C  0.09658833  0.55766249  0.33647712    -0.11600
C86         C  0.05977281  0.55811642  0.34627982     0.19300
C87         C  0.02604040  0.52931341  0.33353568    -0.08700
C88         C  0.02943869  0.50064448  0.31148319    -0.01600
H89         H  0.12271333  0.57971306  0.34626014     0.05800
C90         C  0.05694468  0.58745273  0.37077963     0.21200
H91         H  0.00302083  0.47865738  0.30231442     0.11000
C92         C  0.03263498  0.61788817  0.36223705    -0.15000
C93         C  0.02268768  0.64101585  0.38551920     0.04000
C94         C  0.03770156  0.63424361  0.41792764    -0.10300
C95         C  0.06338319  0.60491469  0.42632171    -0.00300
C96         C  0.07349047  0.58196891  0.40311521    -0.05500
H97         H  0.01917525  0.62184345  0.33743547     0.07000
H98         H  0.07374033  0.59822739  0.45112858     0.10400
Br99       Br  0.97508669  0.52658526  0.34673608    -0.05200
Br100      Br  0.15225045  0.53156120  0.30294461    -0.02100
Br101      Br  0.98358272  0.67695799  0.37201213     0.00700
Br102      Br  0.10643130  0.54068180  0.41684094    -0.03700
C103        C  0.88411904  0.85085697  0.56435720    -0.11100
C104        C  0.88469609  0.85861028  0.53220762     0.04400
C105        C  0.90840802  0.83819019  0.51662417    -0.11600
C106        C  0.92981393  0.80817820  0.53189026     0.19300
C107        C  0.92969235  0.80090749  0.56414703    -0.08700
C108        C  0.90739712  0.82241104  0.58001885    -0.01600
H109        H  0.90783979  0.84374150  0.49174762     0.05800
C110        C  0.94791710  0.78163160  0.51313389     0.21200
H111        H  0.90657425  0.81543880  0.60448774     0.11000
C112        C  0.98959493  0.77769793  0.52222085    -0.15000
C113        C  0.00581702  0.74815051  0.50823027     0.04000
C114        C  0.98058806  0.72318224  0.48368083    -0.10300
C115        C  0.93961084  0.72868226  0.47343420    -0.00300
C116        C  0.92305119  0.75713190  0.48803710    -0.05500
H117        H  0.00902307  0.79613714  0.54155908     0.07000
H118        H  0.91977790  0.70927550  0.45487545     0.10400
Br119      Br  0.95540934  0.75887982  0.58688304    -0.05200
Br120      Br  0.84905391  0.89138811  0.50681652    -0.02100
Br121      Br  0.06073823  0.73983313  0.52631432     0.00700
Br122      Br  0.86530598  0.75795204  0.47477932    -0.03700
C123        C  0.80165335  0.93676731  0.61291012    -0.11100
C124        C  0.82285047  0.96230489  0.63860538     0.04400
C125        C  0.80136281  0.98538836  0.65430645    -0.11600
C126        C  0.75860783  0.98285274  0.64526896     0.19300
C127        C  0.73785812  0.95911213  0.61836368    -0.08700
C128        C  0.75940404  0.93667887  0.60243617    -0.01600
H129        H  0.81775579  0.00347950  0.67492559     0.05800
C130        C  0.73552498  0.00113139  0.66590194     0.21200
H131        H  0.74253364  0.91669780  0.58307157     0.11000
C132        C  0.71161078  0.03096922  0.65407653    -0.15000
C133        C  0.68495901  0.04437114  0.67129968     0.04000
C134        C  0.68170331  0.02763515  0.70108545    -0.10300
C135        C  0.70795974  0.99993668  0.71370640    -0.00300
C136        C  0.73442195  0.98662141  0.69653260    -0.05500
H137        H  0.71275286  0.04300384  0.63083154     0.07000
H138        H  0.70649704  0.98676795  0.73652838     0.10400
Br139      Br  0.67946734  0.95222520  0.60465231    -0.05200
Br140      Br  0.87993375  0.96275607  0.65586289    -0.02100
Br141      Br  0.65402961  0.08524496  0.65254769     0.00700
Br142      Br  0.76567559  0.94585029  0.71512022    -0.03700
C143        C  0.97418574  0.08084296  0.48426691    -0.11100
C144        C  0.94053950  0.05185144  0.47140232     0.04400
C145        C  0.92308725  0.02521569  0.49134860    -0.11600
C146        C  0.93682597  0.02833928  0.52446133     0.19300
C147        C  0.97062998  0.05730150  0.53738640    -0.08700
C148        C  0.98941822  0.08281376  0.51721166    -0.01600
H149        H  0.89747564  0.00285040  0.48100164     0.05800
C150        C  0.91529142  0.00089456  0.54465217     0.21200
H151        H  0.01412997  0.10612165  0.52743042     0.11000
C152        C  0.93705445  0.97505103  0.56505233    -0.15000
C153        C  0.91691775  0.94572350  0.58160573     0.04000
C154        C  0.87390465  0.94020408  0.57646213    -0.10300
C155        C  0.85244698  0.96787183  0.55790633    -0.00300
C156        C  0.87275045  0.99824857  0.54231509    -0.05500
H157        H  0.96983058  0.97728952  0.56778935     0.07000
H158        H  0.81950796  0.96463014  0.55426096     0.10400
Br159      Br  0.98935883  0.06625064  0.58235245    -0.05200
Br160      Br  0.91516106  0.04932390  0.42698042    -0.02100
Br161      Br  0.94982155  0.91584927  0.61232939     0.00700
Br162      Br  0.84089740  0.03528034  0.51817790    -0.03700
C163        C  0.07349840  0.31024461  0.29579202    -0.11100
C164        C  0.10946630  0.30220604  0.31697440     0.04400
C165        C  0.10738590  0.27149170  0.33895335    -0.11600
C166        C  0.07012607  0.24811556  0.34026385     0.19300
C167        C  0.03449420  0.25512038  0.31841037    -0.08700
C168        C  0.03654207  0.28554151  0.29630409    -0.01600
H169        H  0.13487437  0.26648059  0.35574543     0.05800
C170        C  0.06796291  0.22074571  0.36718620     0.21200
H171        H  0.00854129  0.29105429  0.28040441     0.11000
C172        C  0.07444162  0.23756436  0.39781223    -0.15000
C173        C  0.06452535  0.21444231  0.42287522     0.04000
C174        C  0.04761358  0.17393066  0.41748959    -0.10300
C175        C  0.04552662  0.15604526  0.38781160    -0.00300
C176        C  0.05592513  0.17909408  0.36272722    -0.05500
H177        H  0.08461069  0.26938058  0.40176529     0.07000
H178        H  0.03223917  0.12498984  0.38322039     0.10400
Br179      Br  0.98145806  0.22690387  0.31963927    -0.05200
Br180      Br  0.16243934  0.33170867  0.31757616    -0.02100
Br181      Br  0.07027604  0.24022354  0.46337902     0.00700
Br182      Br  0.05082457  0.15304905  0.32241642    -0.03700
C183        C  0.21678285  0.98087879  0.50471233    -0.11100
C184        C  0.21490161  0.00587060  0.47826340     0.04400
C185        C  0.18621342  0.03265471  0.47216705    -0.11600
C186        C  0.15930027  0.03545654  0.49244031     0.19300
C187        C  0.16258077  0.01184236  0.51984454    -0.08700
C188        C  0.19123205  0.98489394  0.52580888    -0.01600
H189        H  0.18418391  0.05064828  0.45108595     0.05800
C190        C  0.12523937  0.05950591  0.48265974     0.21200
H191        H  0.19231873  0.96579160  0.54617207     0.11000
C192        C  0.09262643  0.04481626  0.45766489    -0.15000
C193        C  0.05917120  0.06553965  0.44808442     0.04000
C194        C  0.05766054  0.10154891  0.46359538    -0.10300
C195        C  0.09070784  0.11695733  0.48804226    -0.00300
C196        C  0.12447077  0.09636579  0.49752402    -0.08900
H197        H  0.09310459  0.01690151  0.44566522     0.07000
H198        H  0.09005234  0.14497581  0.49979548     0.10400
Br199      Br  0.12663634  0.01336030  0.54852351    -0.05200
Br200      Br  0.25078354  0.00360437  0.44969743    -0.02100
Br201      Br  0.01666742  0.04415027  0.41318768     0.00700
Br202      Br  0.16921624  0.12006800  0.53013057    -0.03700
C203        C  0.19495610  0.89505113  0.47285693    -0.11100
C204        C  0.19177592  0.87355808  0.44422929     0.04400
C205        C  0.15872782  0.84334387  0.43381073    -0.11600
C206        C  0.12833004  0.83430252  0.45135899     0.19300
C207        C  0.12965925  0.85816359  0.47833767    -0.08700
C208        C  0.16264510  0.88833959  0.48872450    -0.01600
H209        H  0.15806987  0.82519865  0.41305911     0.05800
C210        C  0.10068183  0.79570908  0.44528723     0.21200
H211        H  0.16499524  0.90353620  0.51116219     0.11000
C212        C  0.11700793  0.76064036  0.45517525    -0.15000
C213        C  0.09162567  0.72431728  0.45589610     0.04000
C214        C  0.04887464  0.72239101  0.44589573    -0.10300
C215        C  0.03283247  0.75697581  0.43377464    -0.00300
C216        C  0.05832581  0.79349751  0.43354116    -0.05500
H217        H  0.14955346  0.76214983  0.46454391     0.07000
H218        H  0.00011914  0.75591265  0.42590521     0.10400
Br219      Br  0.09046520  0.84700624  0.50458363    -0.05200
Br220      Br  0.23331480  0.88224134  0.41978826    -0.02100
Br221      Br  0.11692216  0.68056498  0.47576880     0.00700
Br222      Br  0.03401372  0.83990365  0.41847659    -0.03700
C223        C  0.30266340  0.98065571  0.55131111    -0.11100
C224        C  0.30153916  0.97314471  0.58336747     0.04400
C225        C  0.33461716  0.98882609  0.60760262    -0.11600
C226        C  0.36935956  0.01158545  0.60030666     0.19300
C227        C  0.36891833  0.02184910  0.56847263    -0.08700
C228        C  0.33559677  0.00667250  0.54433772    -0.01600
H229        H  0.33469083  0.98038454  0.63190817     0.05800
C230        C  0.40784741  0.01820462  0.62497847     0.21200
H231        H  0.33736746  0.01182448  0.51981502     0.11000
C232        C  0.43958639  0.99690951  0.62208337    -0.15000
C233        C  0.47601557  0.00057310  0.64510124     0.04000
C234        C  0.48140803  0.02613696  0.67193687    -0.10300
C235        C  0.44971577  0.04786719  0.67461640    -0.00300
C236        C  0.41300578  0.04370425  0.65161858    -0.05500
H237        H  0.43582062  0.97698380  0.60178676     0.07000
H238        H  0.45306214  0.06742097  0.69506165     0.10400
Br239      Br  0.41493302  0.05313250  0.55647193    -0.05200
Br240      Br  0.25863462  0.93638649  0.59483486    -0.02100
Br241      Br  0.51735250  0.97059767  0.63758888     0.00700
Br242      Br  0.37079032  0.07332242  0.65746565    -0.03700
C243        C  0.80502771  0.47374627  0.05186963    -0.11100
C244        C  0.80441836  0.47130145  0.08437531     0.04400
C245        C  0.83259395  0.45112033  0.10464665    -0.11600
C246        C  0.86134058  0.43313378  0.09281841     0.19300
C247        C  0.85843629  0.43115504  0.05978551    -0.08700
C248        C  0.83077927  0.45201483  0.03956075    -0.01600
H249        H  0.83440203  0.45248694  0.13002546     0.05800
C250        C  0.89825487  0.42425946  0.11543780     0.21200
H251        H  0.83143831  0.45366955  0.01456153     0.11000
C252        C  0.89588982  0.39194102  0.13591504    -0.15000
C253        C  0.92959685  0.38587528  0.15987711     0.04000
C254        C  0.96644017  0.41294928  0.16377310    -0.10300
C255        C  0.96860312  0.44483387  0.14271157    -0.00300
C256        C  0.93505853  0.45074555  0.11892384    -0.05500
H257        H  0.86744742  0.37182396  0.13361890     0.07000
H258        H  0.99633250  0.46603091  0.14512569     0.10400
Br259      Br  0.89426843  0.40347326  0.04189776    -0.05200
Br260      Br  0.76993112  0.49994069  0.10287844    -0.02100
Br261      Br  0.92215563  0.34104633  0.18684457     0.00700
Br262      Br  0.94032198  0.49727559  0.09325442    -0.03700
C263        C  0.55289501  0.66700298  0.90821093    -0.11100
C264        C  0.55723667  0.66348660  0.94132526     0.04400
C265        C  0.58935736  0.64530349  0.95890528    -0.11600
C266        C  0.61965459  0.63399155  0.94446716     0.19300
C267        C  0.61881678  0.64396598  0.91249816    -0.08700
C268        C  0.58511268  0.65929156  0.89448326    -0.01600
H269        H  0.59031467  0.63952422  0.98378636     0.05800
C270        C  0.65053617  0.61019519  0.96229558     0.21200
H271        H  0.58313722  0.66337761  0.86931718     0.11000
C272        C  0.65444325  0.57306244  0.94955987    -0.15000
C273        C  0.68485097  0.55078493  0.96440807     0.04000
C274        C  0.71081473  0.56463333  0.99348947    -0.10300
C275        C  0.70590618  0.60107777  0.00671200    -0.00300
C276        C  0.67648779  0.62395309  0.99137887    -0.05500
H277        H  0.63466982  0.56208091  0.92719151     0.07000
H278        H  0.72623197  0.61258245  0.02871824     0.10400
Br279      Br  0.66302504  0.63765308  0.89243809    -0.05200
Br280      Br  0.52166343  0.68500733  0.96366832    -0.02100
Br281      Br  0.69252428  0.50490235  0.94175740     0.00700
Br282      Br  0.67580520  0.67528958  0.00987212    -0.03700
C283        C  0.53692545  0.73364788  0.85815693    -0.11100
C284        C  0.55216295  0.73860797  0.83024261     0.04400
C285        C  0.56610746  0.77699322  0.82102015    -0.11600
C286        C  0.56450330  0.81077392  0.83911543     0.19300
C287        C  0.55222335  0.80562752  0.86827701    -0.08700
C288        C  0.53891923  0.76711212  0.87778538    -0.01600
H289        H  0.57546660  0.78069903  0.79853651     0.05800
C290        C  0.56871415  0.85053158  0.82452806     0.21200
H291        H  0.52668726  0.76367304  0.89906462     0.11000
C292        C  0.53323695  0.86470533  0.80826575    -0.15000
C293        C  0.53521517  0.90100688  0.79238979     0.04000
C294        C  0.57360959  0.92407859  0.79260463    -0.10300
C295        C  0.60913270  0.90996952  0.80947236    -0.00300
C296        C  0.60690748  0.87342028  0.82519087    -0.05500
H297        H  0.50369519  0.84712258  0.80773700     0.07000
H298        H  0.63887544  0.92713032  0.81008738     0.10400
Br299      Br  0.54944055  0.85062416  0.89414455    -0.05200
Br300      Br  0.55103106  0.69405378  0.80264509    -0.02100
Br301      Br  0.48399797  0.91720623  0.77187938     0.00700
Br302      Br  0.65650427  0.85570411  0.84721542    -0.03700
C303        C  0.41046531  0.54100998  0.04780370    -0.11100
C304        C  0.44837472  0.56487935  0.04893023     0.04400
C305        C  0.46108025  0.57484594  0.02063974    -0.11600
C306        C  0.43644510  0.56098855  0.99122528     0.19300
C307        C  0.40017340  0.53460482  0.99036783    -0.08700
C308        C  0.38719406  0.52524744  0.01850205    -0.01600
H309        H  0.48916055  0.59506979  0.02145770     0.05800
C310        C  0.44511331  0.57990065  0.96199743     0.21200
H311        H  0.35772868  0.50736759  0.01723554     0.11000
C312        C  0.47525683  0.56806106  0.94776143    -0.15000
C313        C  0.48517513  0.58793252  0.92109612     0.04000
C314        C  0.46594281  0.62115191  0.90943713    -0.10300
C315        C  0.43425041  0.63123917  0.92271329    -0.00300
C316        C  0.42375896  0.61098292  0.94871543    -0.05500
H317        H  0.49088326  0.54328831  0.95731557     0.07000
H318        H  0.41866956  0.65622892  0.91362883     0.10400
Br319      Br  0.36612652  0.51295466  0.95108494    -0.05200
Br320      Br  0.48315449  0.58510955  0.08834404    -0.02100
Br321      Br  0.52293819  0.56721738  0.90044090     0.00700
Br322      Br  0.38121811  0.62816487  0.96616811    -0.03700
C323        C  0.15690982  0.41102904  0.18447782    -0.11100
C324        C  0.15716604  0.43652790  0.15843732     0.04400
C325        C  0.19087472  0.44175846  0.14424307    -0.11600
C326        C  0.22463534  0.42182600  0.15547965     0.19300
C327        C  0.22332230  0.39453257  0.18032299    -0.08700
C328        C  0.18937896  0.38903843  0.19441471    -0.01600
H329        H  0.19148295  0.46286210  0.12516768     0.05800
C330        C  0.26246952  0.43452278  0.14383948     0.21200
H331        H  0.18929372  0.36905062  0.21424574     0.11000
C332        C  0.29634054  0.45517497  0.16499835    -0.15000
C333        C  0.32908355  0.47600314  0.15389292     0.04000
C334        C  0.32823383  0.47653995  0.12111526    -0.10300
C335        C  0.29573614  0.45362175  0.10019156    -0.00300
C336        C  0.26308451  0.43249904  0.11131160    -0.05500
H337        H  0.29620013  0.45716907  0.19004128     0.07000
H338        H  0.29409669  0.45448256  0.07487907     0.10400
Br339      Br  0.26757088  0.36509804  0.19634235    -0.05200
Br340      Br  0.11218808  0.46467156  0.14118700    -0.02100
Br341      Br  0.37328643  0.50509906  0.18417816     0.00700
Br342      Br  0.21909235  0.40304380  0.08103312    -0.03700
C343        C  0.47362621  0.31860194  0.00374684    -0.11100
C344        C  0.46434822  0.30855529  0.03345728     0.04400
C345        C  0.44922987  0.33612388  0.05027258    -0.11600
C346        C  0.44351295  0.37392586  0.03791675     0.19300
C347        C  0.45608122  0.38521446  0.00956931    -0.08700
C348        C  0.47073076  0.35748046  0.99258081    -0.01600
H349        H  0.44083727  0.32766099  0.07257365     0.05800
C350        C  0.42312859  0.40093372  0.05398708     0.21200
H351        H  0.47806661  0.36571886  0.96990573     0.11000
C352        C  0.44508751  0.42264507  0.08130443    -0.15000
C353        C  0.42852931  0.45293188  0.09386784     0.04000
C354        C  0.38974180  0.46195641  0.07894067    -0.10300
C355        C  0.36662751  0.43823274  0.05311948    -0.00300
C356        C  0.38285429  0.40759214  0.04078642    -0.05500
H357        H  0.47583887  0.41729796  0.09195891     0.07000
H358        H  0.33688045  0.44505522  0.04131397     0.10400
Br359      Br  0.45282149  0.43796364  0.99299686    -0.05200
Br360      Br  0.47218292  0.25759376  0.05193808    -0.02100
Br361      Br  0.46061798  0.48332856  0.13019331     0.00700
Br362      Br  0.34967853  0.37674741  0.00503803    -0.03700
C363        C  0.54922190  0.31740164  0.97549333    -0.11100
C364        C  0.55906119  0.34610902  0.95345848     0.04400
C365        C  0.59313324  0.37560146  0.96235978    -0.11600
C366        C  0.61720859  0.37739083  0.99331214     0.19300
C367        C  0.60709815  0.34900574  0.01547208    -0.08700
C368        C  0.57330684  0.31931055  0.00645694    -0.01600
H369        H  0.60028921  0.39785448  0.94536962     0.05800
C370        C  0.65199532  0.40984339  0.00218280     0.21200
H371        H  0.56530196  0.29785441  0.02372322     0.11000
C372        C  0.64709040  0.44423129  0.01814560    -0.15000
C373        C  0.67886099  0.47639719  0.02536952     0.04000
C374        C  0.71588291  0.47478003  0.01575789    -0.10300
C375        C  0.72115341  0.43950785  0.00100431    -0.00300
C376        C  0.68969181  0.40717731  0.99432652    -0.05500
H377        H  0.61847000  0.44596340  0.02505003     0.07000
H378        H  0.74954970  0.43761000  0.99384583     0.10400
Br379      Br  0.63833695  0.35007775  0.05826843    -0.05200
Br380      Br  0.52458409  0.34860143  0.91222330    -0.02100
Br381      Br  0.67091992  0.52012638  0.05024213     0.00700
Br382      Br  0.69944580  0.35988453  0.97457990    -0.03700
C383        C  0.58048177  0.11570609  0.81595405    -0.11100
C384        C  0.56420275  0.10342692  0.84278400     0.04400
C385        C  0.55914785  0.13200038  0.86443857    -0.11600
C386        C  0.57034860  0.17301931  0.86045018     0.19300
C387        C  0.58898794  0.18522146  0.83497706    -0.08700
C388        C  0.59372301  0.15673435  0.81297086    -0.01600
H389        H  0.54547510  0.12213495  0.88427174     0.05800
C390        C  0.55954937  0.20204681  0.88201398     0.21200
H391        H  0.60704745  0.16687320  0.79305177     0.11000
C392        C  0.57781932  0.20354324  0.91463591    -0.15000
C393        C  0.56284453  0.22493851  0.93640051     0.04000
C394        C  0.52882432  0.24494648  0.92568264    -0.10300
C395        C  0.51194472  0.24495961  0.89295472    -0.00300
C396        C  0.52700573  0.22400499  0.87121496    -0.05500
H397        H  0.60249570  0.18647518  0.92335617     0.07000
H398        H  0.48513985  0.25929787  0.88445247     0.10400
Br399      Br  0.60864603  0.24041404  0.82952216    -0.05200
Br400      Br  0.54910258  0.04822677  0.85213784    -0.02100
Br401      Br  0.58690509  0.22229406  0.98073853     0.00700
Br402      Br  0.49870754  0.22258334  0.82750956    -0.03700
loop_ 
_geom_bond_atom_site_label_1 
_geom_bond_atom_site_label_2 
_geom_bond_distance 
_geom_bond_site_symmetry_2 
_ccdc_geom_bond_type 
N1            C5   1.357       .  A
N1            C2   1.360       .  A
N1          C363   1.438       .  S
C2            C3   1.383       .  A
C2          C394   1.485       .  S
C3            C4   1.375       .  A
C3            H6   1.082       .  S
C4            C5   1.381       .  A
C4            H7   1.082       .  S
C5          C343   1.481   1_556  S
N8           C12   1.352       .  A
N8            C9   1.352       .  A
N8          C354   1.435       .  S
C9           C10   1.385       .  A
C9          C334   1.476       .  S
C10          C11   1.379       .  A
C10          H13   1.082       .  S
C11          C12   1.381       .  A
C11          H14   1.082       .  S
C12         C303   1.476       .  S
N15          C19   1.363       .  A
N15          C16   1.356       .  A
N15         C263   1.444       .  S
C16          C17   1.381       .  A
C16         C283   1.475       .  S
C17          C18   1.372       .  A
C17          H20   1.082       .  S
C18          C19   1.383       .  A
C18          H21   1.082       .  S
C19         C314   1.480       .  S
N22          C26   1.364       .  A
N22          C23   1.357       .  A
N22         C374   1.444       .  S
C23          C24   1.379       .  A
C23         C243   1.474       .  S
C24          C25   1.370       .  A
C24          H27   1.082       .  S
C25          C26   1.384       .  A
C25          H28   1.082       .  S
C26         C274   1.484   1_554  S
N29          C33   1.363       .  A
N29          C30   1.359       .  A
N29         C183   1.443       .  S
C30          C31   1.380       .  A
C30         C223   1.475       .  S
C31          C32   1.369       .  A
C31          H34   1.082       .  S
C32          C33   1.383       .  A
C32          H35   1.082       .  S
C33         C203   1.483       .  S
N36          C40   1.360   1_455  A
N36          C37   1.358       .  A
N36         C194   1.442       .  S
C37          C38   1.382   1_455  A
C37         C174   1.474       .  S
C38          C39   1.370       .  A
C38          H41   1.082       .  S
C39          C40   1.381       .  A
C39          H42   1.082       .  S
C40         C143   1.475       .  S
N43          C47   1.365       .  A
N43          C44   1.364       .  A
N43         C154   1.445       .  S
C44          C45   1.382       .  A
C44         C123   1.487       .  S
C45          C46   1.370       .  A
C45          H48   1.082       .  S
C46          C47   1.381       .  A
C46          H49   1.082       .  S
C47         C103   1.488       .  S
N50          C54   1.360   1_455  A
N50          C51   1.361       .  A
N50         C214   1.444       .  S
C51          C52   1.381   1_455  A
C51          C94   1.479       .  S
C52          C53   1.372       .  A
C52          H55   1.082       .  S
C53          C54   1.382       .  A
C53          H56   1.082       .  S
C54         C114   1.482       .  S
In57         O59   2.255       .  S
In57         O60   2.286       .  S
In57         O68   2.269       .  S
In57         O62   2.237       .  S
In57         O64   2.259   1_545  S
In57         O65   2.293       .  S
In57         O66   2.243   1_545  S
In57         O69   2.240       .  S
C58         C294   1.485       .  S
C58          O64   1.262       .  A
C58          O66   1.259       .  A
O59          C67   1.259       .  A
O60          C67   1.260       .  A
C61         C234   1.486       .  S
C61          O68   1.264       .  A
C61          O62   1.260       .  A
C63         C383   1.493       .  S
C63          O65   1.264       .  A
C63          O69   1.255       .  A
C67         C134   1.496       .  S
In70         O72   2.239       .  S
In70         O73   2.256       .  S
In70         O81   2.262       .  S
In70         O75   2.237       .  S
In70         O77   2.267       .  S
In70         O78   2.241       .  S
In70         O79   2.248       .  S
In70         O82   2.251       .  S
C71          C83   1.490       .  S
C71          O77   1.259       .  A
C71          O79   1.259       .  A
O72          C80   1.259       .  A
O73          C80   1.259       .  A
C74         C323   1.472       .  S
C74          O81   1.259       .  A
C74          O75   1.258       .  A
C76         C163   1.487       .  S
C76          O78   1.262       .  A
C76          O82   1.262       .  A
C80         C254   1.485   1_455  S
C83          C84   1.419       .  A
C83          C88   1.407       .  A
C84          C85   1.405       .  A
C84        Br100   1.920       .  S
C85          C86   1.402       .  A
C85          H89   1.083       .  S
C86          C87   1.406       .  A
C86          C90   1.482       .  S
C87          C88   1.396       .  A
C87         Br99   1.920   1_455  S
C88          H91   1.083       .  S
C90          C92   1.405       .  A
C90          C96   1.407       .  A
C92          C93   1.402       .  A
C92          H97   1.084       .  S
C93          C94   1.409       .  A
C93        Br101   1.918   1_455  S
C94          C95   1.404       .  A
C95          C96   1.398       .  A
C95          H98   1.084       .  S
C96        Br102   1.919       .  S
C103        C104   1.411       .  A
C103        C108   1.405       .  A
C104        C105   1.403       .  A
C104       Br120   1.916       .  S
C105        C106   1.406       .  A
C105        H109   1.083       .  S
C106        C107   1.410       .  A
C106        C110   1.489       .  S
C107        C108   1.397       .  A
C107       Br119   1.921       .  S
C108        H111   1.084       .  S
C110        C112   1.407       .  A
C110        C116   1.411       .  A
C112        C113   1.404   1_655  A
C112        H117   1.083   1_655  S
C113        C114   1.409   1_455  A
C113       Br121   1.916       .  S
C114        C115   1.402       .  A
C115        C116   1.396       .  A
C115        H118   1.084       .  S
C116       Br122   1.921       .  S
C123        C124   1.410       .  A
C123        C128   1.405       .  A
C124        C125   1.406       .  A
C124       Br140   1.915       .  S
C125        C126   1.407       .  A
C125        H129   1.083   1_565  S
C126        C127   1.411       .  A
C126        C130   1.493   1_565  S
C127        C128   1.400       .  A
C127       Br139   1.920       .  S
C128        H131   1.084       .  S
C130        C132   1.406       .  A
C130        C136   1.410   1_545  A
C132        C133   1.408       .  A
C132        H137   1.084       .  S
C133        C134   1.417       .  A
C133       Br141   1.919       .  S
C134        C135   1.407   1_545  A
C135        C136   1.400       .  A
C135        H138   1.083       .  S
C136       Br142   1.920       .  S
C143        C144   1.410       .  A
C143        C148   1.402       .  A
C144        C145   1.396       .  A
C144       Br160   1.921       .  S
C145        C146   1.403       .  A
C145        H149   1.084       .  S
C146        C147   1.413       .  A
C146        C150   1.487       .  S
C147        C148   1.403       .  A
C147       Br159   1.918       .  S
C148        H151   1.084   1_655  S
C150        C152   1.403   1_545  A
C150        C156   1.413   1_545  A
C152        C153   1.399       .  A
C152        H157   1.083       .  S
C153        C154   1.412       .  A
C153       Br161   1.917       .  S
C154        C155   1.403       .  A
C155        C156   1.400       .  A
C155        H158   1.083       .  S
C156       Br162   1.920   1_565  S
C163        C164   1.416       .  A
C163        C168   1.406       .  A
C164        C165   1.402       .  A
C164       Br180   1.920       .  S
C165        C166   1.402       .  A
C165        H169   1.083       .  S
C166        C167   1.411       .  A
C166        C170   1.484       .  S
C167        C168   1.399       .  A
C167       Br179   1.921   1_455  S
C168        H171   1.083       .  S
C170        C172   1.403       .  A
C170        C176   1.410       .  A
C172        C173   1.398       .  A
C172        H177   1.084       .  S
C173        C174   1.407       .  A
C173       Br181   1.918       .  S
C174        C175   1.404       .  A
C175        C176   1.403       .  A
C175        H178   1.083       .  S
C176       Br182   1.918       .  S
C183        C184   1.407   1_565  A
C183        C188   1.403       .  A
C184        C185   1.402       .  A
C184       Br200   1.916       .  S
C185        C186   1.404       .  A
C185        H189   1.083       .  S
C186        C187   1.412       .  A
C186        C190   1.490       .  S
C187        C188   1.406   1_545  A
C187       Br199   1.918       .  S
C188        H191   1.081       .  S
C190        C192   1.404       .  A
C190        C196   1.411       .  A
C192        C193   1.401       .  A
C192        H197   1.083       .  S
C193        C194   1.406       .  A
C193       Br201   1.911       .  S
C194        C195   1.405       .  A
C195        C196   1.407       .  A
C195        H198   1.083       .  S
C196       Br202   1.917       .  S
C203        C204   1.414       .  A
C203        C208   1.402       .  A
C204        C205   1.401       .  A
C204       Br220   1.921       .  S
C205        C206   1.402       .  A
C205        H209   1.084       .  S
C206        C207   1.410       .  A
C206        C210   1.482       .  S
C207        C208   1.399       .  A
C207       Br219   1.918       .  S
C208        H211   1.082       .  S
C210        C212   1.402       .  A
C210        C216   1.407       .  A
C212        C213   1.398       .  A
C212        H217   1.084       .  S
C213        C214   1.412       .  A
C213       Br221   1.916       .  S
C214        C215   1.406       .  A
C215        C216   1.402       .  A
C215        H218   1.083       .  S
C216       Br222   1.916       .  S
C223        C224   1.410       .  A
C223        C228   1.402   1_565  A
C224        C225   1.403       .  A
C224       Br240   1.918       .  S
C225        C226   1.404   1_565  A
C225        H229   1.083       .  S
C226        C227   1.409       .  A
C226        C230   1.486       .  S
C227        C228   1.400       .  A
C227       Br239   1.918       .  S
C228        H231   1.082       .  S
C230        C232   1.403   1_545  A
C230        C236   1.407       .  A
C232        C233   1.399   1_565  A
C232        H237   1.083       .  S
C233        C234   1.414       .  A
C233       Br241   1.922   1_545  S
C234        C235   1.408       .  A
C235        C236   1.405       .  A
C235        H238   1.083       .  S
C236       Br242   1.917       .  S
C243        C244   1.407       .  A
C243        C248   1.403       .  A
C244        C245   1.398       .  A
C244       Br260   1.916       .  S
C245        C246   1.402       .  A
C245        H249   1.083       .  S
C246        C247   1.408       .  A
C246        C250   1.477       .  S
C247        C248   1.400       .  A
C247       Br259   1.918       .  S
C248        H251   1.083       .  S
C250        C252   1.401       .  A
C250        C256   1.408       .  A
C252        C253   1.403       .  A
C252        H257   1.083       .  S
C253        C254   1.418       .  A
C253       Br261   1.920       .  S
C254        C255   1.405       .  A
C255        C256   1.394       .  A
C255        H258   1.083       .  S
C256       Br262   1.922       .  S
C263        C264   1.409       .  A
C263        C268   1.404       .  A
C264        C265   1.401       .  A
C264       Br280   1.915       .  S
C265        C266   1.406       .  A
C265        H269   1.083       .  S
C266        C267   1.411       .  A
C266        C270   1.487       .  S
C267        C268   1.398       .  A
C267       Br279   1.920       .  S
C268        H271   1.081       .  S
C270        C272   1.408       .  A
C270        C276   1.408       .  A
C272        C273   1.402       .  A
C272        H277   1.084       .  S
C273        C274   1.409       .  A
C273       Br281   1.916       .  S
C274        C275   1.407   1_556  A
C275        C276   1.397   1_554  A
C275        H278   1.084       .  S
C276       Br282   1.920   1_556  S
C283        C284   1.407       .  A
C283        C288   1.403       .  A
C284        C285   1.399       .  A
C284       Br300   1.918       .  S
C285        C286   1.402       .  A
C285        H289   1.083       .  S
C286        C287   1.408       .  A
C286        C290   1.478       .  S
C287        C288   1.401       .  A
C287       Br299   1.918       .  S
C288        H291   1.083       .  S
C290        C292   1.400       .  A
C290        C296   1.404       .  A
C292        C293   1.398       .  A
C292        H297   1.084       .  S
C293        C294   1.416       .  A
C293       Br301   1.922       .  S
C294        C295   1.409       .  A
C295        C296   1.402       .  A
C295        H298   1.084       .  S
C296       Br302   1.916       .  S
C303        C304   1.407       .  A
C303        C308   1.402       .  A
C304        C305   1.400       .  A
C304       Br320   1.917       .  S
C305        C306   1.403   1_554  A
C305        H309   1.083       .  S
C306        C307   1.405       .  A
C306        C310   1.473       .  S
C307        C308   1.395   1_556  A
C307       Br319   1.918       .  S
C308        H311   1.081       .  S
C310        C312   1.403       .  A
C310        C316   1.407       .  A
C312        C313   1.404       .  A
C312        H317   1.084       .  S
C313        C314   1.411       .  A
C313       Br321   1.917       .  S
C314        C315   1.403       .  A
C315        C316   1.392       .  A
C315        H318   1.084       .  S
C316       Br322   1.921       .  S
C323        C324   1.409       .  A
C323        C328   1.403       .  A
C324        C325   1.396       .  A
C324       Br340   1.921       .  S
C325        C326   1.404       .  A
C325        H329   1.084       .  S
C326        C327   1.410       .  A
C326        C330   1.481       .  S
C327        C328   1.401       .  A
C327       Br339   1.918       .  S
C328        H331   1.084       .  S
C330        C332   1.404       .  A
C330        C336   1.409       .  A
C332        C333   1.398       .  A
C332        H337   1.083       .  S
C333        C334   1.407       .  A
C333       Br341   1.918       .  S
C334        C335   1.403       .  A
C335        C336   1.399       .  A
C335        H338   1.081       .  S
C336       Br342   1.919       .  S
C343        C344   1.410       .  A
C343        C348   1.403   1_554  A
C344        C345   1.401       .  A
C344       Br360   1.917       .  S
C345        C346   1.401       .  A
C345        H349   1.084       .  S
C346        C347   1.410       .  A
C346        C350   1.478       .  S
C347        C348   1.400   1_554  A
C347       Br359   1.921   1_554  S
C348        H351   1.083       .  S
C350        C352   1.401       .  A
C350        C356   1.410       .  A
C352        C353   1.399       .  A
C352        H357   1.084       .  S
C353        C354   1.407       .  A
C353       Br361   1.916       .  S
C354        C355   1.399       .  A
C355        C356   1.397       .  A
C355        H358   1.082       .  S
C356       Br362   1.918       .  S
C363        C364   1.406       .  A
C363        C368   1.404   1_556  A
C364        C365   1.400       .  A
C364       Br380   1.914       .  S
C365        C366   1.403       .  A
C365        H369   1.083       .  S
C366        C367   1.406   1_556  A
C366        C370   1.477   1_556  S
C367        C368   1.399       .  A
C367       Br379   1.918       .  S
C368        H371   1.083       .  S
C370        C372   1.403       .  A
C370        C376   1.404   1_554  A
C372        C373   1.402       .  A
C372        H377   1.083       .  S
C373        C374   1.411       .  A
C373       Br381   1.915       .  S
C374        C375   1.406       .  A
C375        C376   1.398   1_554  A
C375        H378   1.082   1_554  S
C376       Br382   1.918       .  S
C383        C384   1.419       .  A
C383        C388   1.407       .  A
C384        C385   1.401       .  A
C384       Br400   1.923       .  S
C385        C386   1.402       .  A
C385        H389   1.085       .  S
C386        C387   1.410       .  A
C386        C390   1.491       .  S
C387        C388   1.406       .  A
C387       Br399   1.917       .  S
C388        H391   1.084       .  S
C390        C392   1.408       .  A
C390        C396   1.410       .  A
C392        C393   1.407       .  A
C392        H397   1.082       .  S
C393        C394   1.409       .  A
C393       Br401   1.917       .  S
C394        C395   1.404       .  A
C395        C396   1.400       .  A
C395        H398   1.083       .  S
C396       Br402   1.919       .  S
