geometry optimzed in LAMMPS
_audit_creation_date              2020-12-01 
_audit_creation_method            'lammps2cif' 
_symmetry_space_group_name_H-M    'P1' 
_symmetry_Int_Tables_number       1 
_symmetry_cell_setting            triclinic 
loop_ 
_symmetry_equiv_pos_as_xyz 
  x,y,z 
_cell_length_a                    24.52852752 
_cell_length_b                    29.19063521511212 
_cell_length_c                    31.662700481563697 
_cell_angle_alpha                 89.82215791446873 
_cell_angle_beta                  89.48060085399443 
_cell_angle_gamma                 88.66810286778322 
loop_ 
_atom_site_label 
_atom_site_type_symbol 
_atom_site_fract_x 
_atom_site_fract_y 
_atom_site_fract_z 
_atom_site_charge 
N1          N  0.22393741  0.61927406  0.25852992    -0.03500
C2          C  0.18168038  0.59180392  0.27030444    -0.00900
C3          C  0.15103911  0.58188899  0.23496440    -0.23800
C4          C  0.18237025  0.59262490  0.20073897    -0.24000
C5          C  0.22954921  0.61057237  0.21643024    -0.01000
H6          H  0.11591667  0.56020677  0.23371928     0.12800
H7          H  0.17680387  0.57909771  0.16929969     0.12800
N8          N  0.21897573  0.81765865  0.28398747    -0.03500
C9          C  0.22089423  0.83346617  0.32462365    -0.00900
C10         C  0.16862074  0.84608445  0.33822035    -0.23800
C11         C  0.13763080  0.84951336  0.30290165    -0.24000
C12         C  0.17218821  0.83844931  0.26957484    -0.01000
H13         H  0.15727782  0.86276116  0.36756363     0.12800
H14         H  0.09926502  0.86849754  0.30102305     0.12800
Zr15       Zr  0.57715142  0.90026364  0.53398373     2.17500
O16         O  0.64944751  0.84798543  0.55809587    -0.51300
O17         O  0.52961987  0.83768733  0.57164533    -0.74600
O18         O  0.63113272  0.93549045  0.59180166    -0.81300
O19         O  0.56925906  0.85457987  0.41910551    -0.83100
O20         O  0.55649262  0.96795241  0.61660855    -0.78700
O21         O  0.62240170  0.85333567  0.47751987    -0.90300
O22         O  0.43832830  0.85300349  0.57242693    -0.76300
O23         O  0.50407220  0.93920557  0.57118087    -0.85800
O24         O  0.49376750  0.88399538  0.49844542    -0.85500
O25         O  0.59431753  0.98235192  0.52918491    -0.72200
O26         O  0.58397101  0.92946856  0.46288412    -0.84400
Zr27       Zr  0.44174829  0.03261201  0.46229507     2.26400
Zr28       Zr  0.51889087  0.02007884  0.56548034     2.06300
Zr29       Zr  0.50056627  0.91398188  0.42826131     2.10000
Zr30       Zr  0.42190862  0.92266400  0.53635466     1.78800
O31         O  0.54204245  0.91276433  0.35805992    -0.93200
O32         O  0.39489762  0.94042519  0.60888949    -0.41000
O33         O  0.42808835  0.95139547  0.46641241    -0.77600
O34         O  0.43453233  0.00282118  0.53318761    -0.96300
O35         O  0.52560374  0.04851638  0.49550803    -0.89600
O36         O  0.51455504  0.99463081  0.42346747    -0.92500
C37         C  0.47977049  0.82778408  0.58064755     1.01300
C38         C  0.61111102  0.84021960  0.43953244     1.14200
C39         C  0.60797487  0.96401737  0.61748480     1.05000
O40         O  0.47308932  0.04110231  0.63152967    -0.94600
O41         O  0.45940287  0.08593216  0.57375655    -0.90400
O42         O  0.40152730  0.08472538  0.51824479    -0.83500
C43         C  0.41528814  0.09882384  0.55556091     1.11600
O44         O  0.69141797  0.98363176  0.44525655    -0.96600
Zr45       Zr  0.59778926  0.00959775  0.45848990     1.88900
O46         O  0.49098841  0.09132412  0.42088773    -0.73200
O47         O  0.58895084  0.07736242  0.57406974    -0.52500
O48         O  0.66803826  0.05602995  0.48983544    -0.97200
O49         O  0.62327617  0.00888959  0.38373220    -0.54400
O50         O  0.57828497  0.08752202  0.44338771    -0.73700
C51         C  0.53933525  0.10755393  0.42405970     0.98600
O52         O  0.37491885  0.08269722  0.42754083    -0.62600
O53         O  0.44473653  0.84771154  0.41481205    -0.57400
O54         O  0.37751492  0.98564156  0.42016127    -0.94100
O55         O  0.43355262  0.94294939  0.37904219    -0.92500
O56         O  0.36311127  0.86264621  0.51140544    -0.92800
O57         O  0.32516958  0.94354708  0.53668084    -0.91600
C58         C  0.38561593  0.95546584  0.39062688     1.17400
H59         H  0.48810516  0.85140134  0.49696256     0.33400
H60         H  0.40383508  0.01399967  0.54963734     0.44200
H61         H  0.51462910  0.00458785  0.39439341     0.37800
H62         H  0.62877383  0.99134932  0.54060817     0.34200
H63         H  0.36286102  0.92124856  0.61455594     0.26000
H64         H  0.59226573  0.09224815  0.54606793     0.32000
H65         H  0.68466125  0.07272643  0.46586550     0.37900
H66         H  0.38263193  0.84931909  0.48669038     0.32300
H67         H  0.44599158  0.84391171  0.38375285     0.31200
H68         H  0.51851503  0.89289990  0.34111544     0.32900
H69         H  0.59752050  0.03032154  0.36944831     0.31900
H70         H  0.32323210  0.97520866  0.52540562     0.35900
H71         H  0.33996539  0.07670224  0.44221087     0.28600
H72         H  0.64457544  0.84586488  0.58911403     0.32800
H73         H  0.69445198  0.95348215  0.45956389     0.35700
H74         H  0.46607588  0.82113017  0.42580986     0.28300
H75         H  0.38416298  0.11409396  0.43629508     0.41200
H76         H  0.45043577  0.01450249  0.63863899     0.31200
H77         H  0.42401301  0.92670610  0.62667904     0.38800
H78         H  0.61371669  0.97811313  0.37354092     0.30700
H79         H  0.57148119  0.10135140  0.59200722     0.30700
H80         H  0.68370778  0.86478706  0.55395963     0.31000
N81         N  0.71432683  0.30902757  0.70538053    -0.03500
C82         C  0.66355647  0.32036506  0.72085738    -0.00900
C83         C  0.63327404  0.34347693  0.69086130    -0.23800
C84         C  0.66759670  0.35200790  0.65799638    -0.24000
C85         C  0.71851323  0.33352575  0.66832993    -0.01000
H86         H  0.59406140  0.36053828  0.69585505     0.12800
H87         H  0.65820010  0.37661647  0.63335771     0.12800
N88         N  0.74094883  0.11557177  0.74333038    -0.03500
C89         C  0.74636741  0.10356114  0.78508690    -0.00900
C90         C  0.69934190  0.08432016  0.80078529    -0.23800
C91         C  0.66737120  0.07662434  0.76718604    -0.24000
C92         C  0.69506817  0.09270236  0.73234471    -0.01000
H93         H  0.69420810  0.06794184  0.83125681     0.12800
H94         H  0.63241134  0.05462682  0.76719257     0.12800
N95         N  0.64243407  0.27427882  0.30240937    -0.03500
C96         C  0.61430700  0.26757132  0.33904424    -0.00900
C97         C  0.58175205  0.30510229  0.34906601    -0.23800
C98         C  0.58769280  0.33564153  0.31690523    -0.24000
C99         C  0.62363482  0.31566712  0.28811243    -0.01000
H100        H  0.55151438  0.30737164  0.37414435     0.12800
H101        H  0.56227124  0.36598640  0.31207420     0.12800
N102        N  0.85464587  0.18594523  0.29245675    -0.03500
C103        C  0.88401274  0.18715598  0.32882518    -0.00900
C104        C  0.91398864  0.14693596  0.33407623    -0.23800
C105        C  0.90488633  0.12062797  0.29949395    -0.24000
C106        C  0.86981843  0.14552679  0.27392158    -0.01000
H107        H  0.94506302  0.14020128  0.35750236     0.12800
H108        H  0.92743828  0.08961510  0.29106302     0.12800
Zr109      Zr  0.95065301  0.52804441  0.53813746     2.17500
O110        O  0.87895988  0.58325903  0.55803938    -0.51300
O111        O  0.99432678  0.58514616  0.58373843    -0.74600
O112        O  0.88092421  0.49010017  0.58390930    -0.81300
O113        O  0.99215942  0.57888477  0.42945962    -0.83100
O114        O  0.93807192  0.44358071  0.61790111    -0.78700
O115        O  0.92217592  0.57889699  0.47684817    -0.90300
O116        O  0.08050095  0.55940575  0.59782211    -0.76300
O117        O  0.00770121  0.47840912  0.58106508    -0.85800
O118        O  0.04383382  0.54082207  0.51875318    -0.85500
O119        O  0.92725404  0.44949445  0.52199050    -0.72200
O120        O  0.96240669  0.50670745  0.46584106    -0.84400
Zr121      Zr  0.08541796  0.38995697  0.47158139     2.26400
Zr122      Zr  0.98530422  0.40080589  0.56381371     2.06300
Zr123      Zr  0.05522993  0.51826759  0.44733784     2.10000
Zr124      Zr  0.09969158  0.49042726  0.56043001     1.78800
O125        O  0.05467446  0.51821729  0.37031275    -0.93200
O126        O  0.11427288  0.46378285  0.63257564    -0.41000
O127        O  0.11051484  0.46722244  0.48913636    -0.77600
O128        O  0.07896096  0.41336962  0.54506424    -0.96300
O129        O  0.99239284  0.37922699  0.49130255    -0.89600
O130        O  0.03058173  0.44170309  0.42922008    -0.92500
C131        C  0.04209277  0.58947131  0.59983966     1.01300
C132        C  0.94538015  0.59348547  0.44225754     1.14200
C133        C  0.88953728  0.45672123  0.61006225     1.05000
O134        O  0.97692935  0.35914748  0.63045731    -0.94600
O135        O  0.04339654  0.33514961  0.57690226    -0.90400
O136        O  0.10661183  0.32769544  0.52437108    -0.83500
C137        C  0.08494445  0.31497693  0.56001846     1.11600
O138        O  0.84124215  0.45046250  0.44947171    -0.96600
Zr139      Zr  0.93822689  0.43065766  0.44956046     1.88900
O140        O  0.03107185  0.33430474  0.43169167    -0.73200
O141        O  0.90692159  0.35418190  0.54817800    -0.52500
O142        O  0.87729464  0.36680242  0.45979849    -0.97200
O143        O  0.91376865  0.47058609  0.38454867    -0.54400
O144        O  0.96530427  0.37532572  0.39797847    -0.73700
C145        C  0.99129318  0.33802731  0.40539289     0.98600
O146        O  0.16731299  0.34575230  0.45180121    -0.62600
O147        O  0.10789928  0.58797250  0.44051798    -0.57400
O148        O  0.14065203  0.42303397  0.41176096    -0.94100
O149        O  0.14653474  0.48885576  0.44392842    -0.92500
O150        O  0.17331468  0.53825593  0.53510739    -0.92800
O151        O  0.19147054  0.46697704  0.58139760    -0.91600
C152        C  0.15660033  0.46487969  0.41156681     1.17400
H153        H  0.05376374  0.57251682  0.52038001     0.33400
H154        H  0.10480215  0.39747486  0.56286534     0.44200
H155        H  0.03624162  0.43615994  0.39944172     0.37800
H156        H  0.88965164  0.44270204  0.52709593     0.34200
H157        H  0.09547688  0.48691362  0.65067033     0.26000
H158        H  0.92257286  0.32306311  0.54322346     0.32000
H159        H  0.86197430  0.36090256  0.43155613     0.37900
H160        H  0.15585839  0.56844207  0.52906044     0.32300
H161        H  0.10173530  0.59914630  0.41137940     0.31200
H162        H  0.05919507  0.55052762  0.36168772     0.32900
H163        H  0.88765736  0.45034256  0.37054386     0.31900
H164        H  0.19802348  0.43699106  0.56749099     0.35900
H165        H  0.19310881  0.35027942  0.47522562     0.28600
H166        H  0.88068944  0.58523138  0.58921333     0.32800
H167        H  0.83870793  0.48107076  0.46284600     0.35700
H168        H  0.08883627  0.61095433  0.45862981     0.28300
H169        H  0.15717357  0.31317589  0.45384577     0.41200
H170        H  0.95519346  0.33181092  0.62439460     0.31200
H171        H  0.09192007  0.43611012  0.63537003     0.38800
H172        H  0.94703002  0.46853432  0.36665074     0.30700
H173        H  0.88651948  0.35154030  0.57511234     0.30700
H174        H  0.84425527  0.56786678  0.55232058     0.31000
N175        N  0.36712131  0.67041738  0.70523800    -0.03500
C176        C  0.38150456  0.62832591  0.72059078    -0.00900
C177        C  0.41434655  0.60426530  0.69240704    -0.23800
C178        C  0.42264663  0.63256273  0.65888651    -0.24000
C179        C  0.39464083  0.67296557  0.66767433    -0.01000
H180        H  0.43585682  0.57207955  0.69818792     0.12800
H181        H  0.45182006  0.62664269  0.63350703     0.12800
N182        N  0.15164522  0.75282001  0.71270782    -0.03500
C183        C  0.13810683  0.79406906  0.73008401    -0.00900
C184        C  0.10545686  0.81999125  0.70348601    -0.23800
C185        C  0.09617258  0.79350230  0.66906038    -0.24000
C186        C  0.12376917  0.75244647  0.67568516    -0.01000
H187        H  0.08449286  0.85200985  0.71103272     0.12800
H188        H  0.06670447  0.80095395  0.64459306     0.12800
Zr189      Zr  0.96449475  0.91865882  0.94088689     2.17500
O190        O  0.91228845  0.87046733  0.89399912    -0.51300
O191        O  0.02828513  0.87532782  0.89468371    -0.74600
O192        O  0.91408836  0.96528920  0.88700791    -0.81300
O193        O  0.98355731  0.83546759  0.02030347    -0.83100
O194        O  0.95545569  0.03417325  0.88308243    -0.78700
O195        O  0.91325400  0.86025735  0.98257581    -0.90300
O196        O  0.11512246  0.89476273  0.90926797    -0.76300
O197        O  0.03788974  0.96928172  0.92545025    -0.85800
O198        O  0.04289246  0.89560691  0.98167615    -0.85500
O199        O  0.93271885  0.99461894  0.96153445    -0.72200
O200        O  0.93778108  0.92474260  0.01406978    -0.84400
Zr201      Zr  0.05591230  0.02905742  0.06110249     2.26400
Zr202      Zr  0.00723058  0.04402206  0.94648387     2.06300
Zr203      Zr  0.01609154  0.90280577  0.05415299     2.10000
Zr204      Zr  0.11433067  0.94676541  0.96740256     1.78800
O205        O  0.95422844  0.89016073  0.11347556    -0.93200
O206        O  0.16484554  0.98306278  0.91022164    -0.41000
O207        O  0.08875177  0.95369199  0.04003622    -0.77600
O208        O  0.08561203  0.02206905  0.98731647    -0.96300
O209        O  0.97890161  0.05126238  0.01903247    -0.89600
O210        O  0.98400432  0.97703039  0.07597752    -0.92500
C211        C  0.08013870  0.87345390  0.88771764     1.01300
C212        C  0.93350726  0.83324184  0.01107118     1.14200
C213        C  0.91903239  0.00627868  0.87185072     1.05000
O214        O  0.08262619  0.06739163  0.90142062    -0.94600
O215        O  0.01950136  0.10949195  0.99049548    -0.90400
O216        O  0.09376534  0.09820554  0.02742549    -0.83500
C217        C  0.06817351  0.12016532  0.99833182     1.11600
O218        O  0.81722111  0.98056386  0.00947091    -0.96600
Zr219      Zr  0.90785722  0.99974416  0.03387985     1.88900
O220        O  0.98968723  0.06917111  0.10948081    -0.73200
O221        O  0.96504674  0.11448501  0.91916430    -0.52500
O222        O  0.86151111  0.06846420  0.00701829    -0.97200
O223        O  0.85336443  0.95805997  0.08535728    -0.54400
O224        O  0.90326676  0.04884856  0.09384325    -0.73700
C225        C  0.93748660  0.06990269  0.11631811     0.98600
O226        O  0.12175140  0.06676861  0.10580455    -0.62600
O227        O  0.05926629  0.82963646  0.07382241    -0.57400
O228        O  0.10566094  0.98442627  0.11612519    -0.94100
O229        O  0.08305336  0.91021788  0.10727496    -0.92500
O230        O  0.16938005  0.88189365  0.99260152    -0.92800
O231        O  0.20604171  0.96817641  0.98721870    -0.91600
C232        C  0.10920054  0.94140702  0.12578308     1.17400
H233        H  0.05515708  0.86472566  0.97527389     0.33400
H234        H  0.11633660  0.04068426  0.98016127     0.44200
H235        H  0.97504384  0.97704679  0.10570579     0.37800
H236        H  0.89903733  0.00534979  0.94853943     0.34200
H237        H  0.13834033  0.98658385  0.88697589     0.26000
H238        H  0.97525650  0.11677895  0.88891406     0.32000
H239        H  0.83725731  0.07907212  0.03033328     0.37900
H240        H  0.19756092  0.87680600  0.97040256     0.32300
H241        H  0.09883791  0.83336247  0.06889455     0.31200
H242        H  0.97838652  0.88578881  0.13811819     0.32900
H243        H  0.87391098  0.95965429  0.11203915     0.31900
H244        H  0.20053011  0.99452094  0.00653703     0.35900
H245        H  0.15541558  0.06889513  0.08846278     0.28600
H246        H  0.92675710  0.83894220  0.89880813     0.32800
H247        H  0.79164621  0.00151241  0.02476169     0.35700
H248        H  0.05498317  0.82682009  0.10485303     0.28300
H249        H  0.10806517  0.09877296  0.10893121     0.41200
H250        H  0.06874716  0.06459891  0.87230518     0.31200
H251        H  0.17125941  0.01473466  0.91973714     0.38800
H252        H  0.85713360  0.92553350  0.07678231     0.30700
H253        H  0.92522875  0.10990381  0.91981496     0.30700
H254        H  0.92488813  0.87819757  0.86508742     0.31000
N255        N  0.23026073  0.18720237  0.69517174    -0.03500
C256        C  0.25292647  0.14717599  0.68033835    -0.00900
C257        C  0.21181092  0.11640725  0.67298723    -0.23800
C258        C  0.16411689  0.14150603  0.67287777    -0.24000
C259        C  0.17778175  0.18613682  0.68168070    -0.01000
H260        H  0.21696056  0.08359738  0.65738920     0.12800
H261        H  0.12734319  0.13077839  0.65744404     0.12800
N262        N  0.22118037  0.24658229  0.86998009    -0.03500
C263        C  0.16721572  0.24726041  0.88043907    -0.00900
C264        C  0.15019161  0.29156828  0.89009513    -0.23800
C265        C  0.19626186  0.31656788  0.89320818    -0.24000
C266        C  0.23989338  0.28609905  0.88727006    -0.01000
H267        H  0.11131444  0.30222154  0.90366217     0.12800
H268        H  0.19767628  0.34930499  0.90912544     0.12800
Zr269      Zr  0.55343130  0.50562966  0.93717968     2.17500
O270        O  0.61749935  0.54232983  0.88918337    -0.51300
O271        O  0.49592932  0.55349934  0.88925223    -0.74600
O272        O  0.58788628  0.45012532  0.88169398    -0.81300
O273        O  0.55783116  0.59665298  0.01105844    -0.83100
O274        O  0.54000217  0.38519968  0.88963250    -0.78700
O275        O  0.61849824  0.55539191  0.97446646    -0.90300
O276        O  0.40705750  0.53742375  0.90204250    -0.76300
O277        O  0.47050499  0.46549683  0.92814835    -0.85800
O278        O  0.48333725  0.54462539  0.97872101    -0.85500
O279        O  0.57158619  0.42852677  0.96285230    -0.72200
O280        O  0.58031364  0.50121975  0.01047448    -0.84400
Zr281      Zr  0.44418838  0.42221728  0.06659107     2.26400
Zr282      Zr  0.48767015  0.38960651  0.95376624     2.06300
Zr283      Zr  0.51066574  0.53952611  0.05145880     2.10000
Zr284      Zr  0.40178081  0.50339057  0.97004614     1.78800
O285        O  0.57508591  0.54832976  0.10882164    -0.93200
O286        O  0.32988910  0.46958348  0.92856558    -0.41000
O287        O  0.42859626  0.49933020  0.04162108    -0.77600
O288        O  0.41532742  0.42657030  0.99318374    -0.96300
O289        O  0.51463344  0.38446341  0.02619895    -0.89600
O290        O  0.52676559  0.46339989  0.07706605    -0.92500
C291        C  0.44464412  0.55565938  0.88020371     1.01300
C292        C  0.60704921  0.58748281  0.00127314     1.14200
C293        C  0.57556877  0.40890342  0.87036203     1.05000
O294        O  0.41317938  0.37869298  0.90475572    -0.94600
O295        O  0.45239615  0.32740813  0.99486918    -0.90400
O296        O  0.38995378  0.35866190  0.03763899    -0.83500
C297        C  0.40367570  0.32943959  0.00876222     1.11600
O298        O  0.68957594  0.43347926  0.01100783    -0.96600
Zr299      Zr  0.59596857  0.42539840  0.03564116     1.88900
O300        O  0.50137795  0.38606141  0.12151941    -0.73200
O301        O  0.52264105  0.31266170  0.93722809    -0.52500
O302        O  0.63190979  0.35006266  0.01542086    -0.97200
O303        O  0.65936123  0.45632196  0.08655863    -0.54400
O304        O  0.58977329  0.38198965  0.09925560    -0.73700
C305        C  0.55216098  0.37525763  0.12635065     0.98600
O306        O  0.38357904  0.38869965  0.11920166    -0.62600
O307        O  0.48629695  0.61639966  0.07633001    -0.57400
O308        O  0.39596509  0.48045803  0.11092594    -0.94100
O309        O  0.43904944  0.54819623  0.10348332    -0.92500
O310        O  0.36637502  0.58144455  0.97894145    -0.92800
O311        O  0.31481414  0.50398891  0.00789339    -0.91600
C312        C  0.40180757  0.52336705  0.11948646     1.17400
H313        H  0.47766780  0.57601954  0.96971876     0.33400
H314        H  0.38066286  0.41329747  0.98705205     0.44200
H315        H  0.53618262  0.46483310  0.10655642     0.37800
H316        H  0.60175942  0.41326887  0.94851893     0.34200
H317        H  0.30860931  0.49607295  0.91729273     0.26000
H318        H  0.50779406  0.30501557  0.90920177     0.32000
H319        H  0.60024030  0.33358205  0.00442840     0.37900
H320        H  0.33545966  0.58403800  0.95910406     0.32300
H321        H  0.52118520  0.63043669  0.08404403     0.31200
H322        H  0.55253996  0.54662552  0.13485516     0.32900
H323        H  0.67831079  0.42939899  0.09928297     0.31900
H324        H  0.32175169  0.48595546  0.03391596     0.35900
H325        H  0.34628187  0.39355953  0.10804386     0.28600
H326        H  0.60104894  0.54005812  0.86083554     0.32800
H327        H  0.68688217  0.45533836  0.98710041     0.35700
H328        H  0.47381117  0.63350402  0.05100963     0.28300
H329        H  0.39037481  0.35516317  0.11781359     0.41200
H330        H  0.43063239  0.36480720  0.87939214     0.31200
H331        H  0.34884562  0.45634692  0.90354646     0.38800
H332        H  0.63613708  0.46890449  0.10966622     0.30700
H333        H  0.56243210  0.31531875  0.93264988     0.30700
H334        H  0.64990271  0.52147902  0.88807123     0.31000
N335        N  0.78857657  0.72461994  0.31115251    -0.03500
C336        C  0.77491435  0.76775149  0.32483298    -0.00900
C337        C  0.82051971  0.79460649  0.32430491    -0.23800
C338        C  0.86404595  0.76455442  0.32353638    -0.24000
C339        C  0.84239569  0.72112025  0.32165905    -0.01000
H340        H  0.82228857  0.82986553  0.33459198     0.12800
H341        H  0.90448462  0.77316584  0.33380723     0.12800
N342        N  0.78318635  0.68681507  0.13129536    -0.03500
C343        C  0.83297477  0.69663571  0.11443384    -0.00900
C344        C  0.85832046  0.65791871  0.09803412    -0.23800
C345        C  0.82088596  0.62435160  0.09942324    -0.24000
C346        C  0.77350549  0.64391848  0.11612837    -0.01000
H347        H  0.89545834  0.65673157  0.07927187     0.12800
H348        H  0.82426306  0.59287395  0.08149432     0.12800
C349        C  0.75959238  0.74690345  0.23701972    -0.26300
C350        C  0.77700925  0.71302068  0.26673218    -0.14400
C351        C  0.79045577  0.66915895  0.25050326     0.36200
C352        C  0.79061555  0.66097402  0.20646007    -0.25800
C353        C  0.77586267  0.69533924  0.17673157    -0.15000
C354        C  0.75900333  0.73870074  0.19286310     0.37300
N355        N  0.74250555  0.77568585  0.16541102    -0.89300
H356        H  0.74830779  0.78102756  0.24771795     0.18400
H357        H  0.80399193  0.62747655  0.19537137     0.18400
N358        N  0.80504949  0.63270748  0.27882185    -0.88300
H359        H  0.70192386  0.78430268  0.17277900     0.35800
H360        H  0.74295310  0.76536949  0.13387323     0.40900
H361        H  0.84445020  0.62099901  0.27100418     0.40500
H362        H  0.77833928  0.60586824  0.27397213     0.35400
C363        C  0.67507750  0.57170394  0.05658775    -0.26300
C364        C  0.64940114  0.60427312  0.03032704    -0.14400
C365        C  0.65747330  0.65138518  0.03837131     0.36200
C366        C  0.69411445  0.66417566  0.07012035    -0.25800
C367        C  0.72187287  0.63120742  0.09496592    -0.15000
C368        C  0.70920661  0.58448245  0.08964304     0.37300
N369        N  0.73124822  0.54905071  0.11667614    -0.89300
H370        H  0.66698530  0.53576935  0.05228533     0.18400
H371        H  0.70315963  0.70009341  0.07372280     0.18400
N372        N  0.63075362  0.68705104  0.01427720    -0.88300
H373        H  0.69833437  0.53339387  0.13159373     0.35800
H374        H  0.75405194  0.56282313  0.14104908     0.40900
H375        H  0.60593101  0.67368126  0.99097439     0.40500
H376        H  0.66101583  0.70516802  0.99839386     0.37000
C377        C  0.37620317  0.28376804  0.94559420    -0.26300
C378        C  0.36124558  0.30450595  0.98447561    -0.14400
C379        C  0.30524073  0.30873801  0.99450680     0.36200
C380        C  0.26645713  0.29871473  0.96345327    -0.25800
C381        C  0.28197684  0.28543701  0.92187995    -0.15000
C382        C  0.33752411  0.27498093  0.91425799     0.37300
N383        N  0.35629685  0.25791826  0.87426139    -0.89300
H384        H  0.41880037  0.27790492  0.93775716     0.18400
H385        H  0.22366305  0.30353569  0.97134010     0.18400
N386        N  0.28781558  0.32511630  0.03535346    -0.88300
H387        H  0.33700987  0.22704775  0.86846527     0.35800
H388        H  0.34487461  0.28150775  0.85089628     0.40900
H389        H  0.30078039  0.30090004  0.05773101     0.40500
H390        H  0.24525582  0.32697638  0.03743343     0.35400
C391        C  0.23969135  0.24765436  0.74930405    -0.26300
C392        C  0.23734995  0.20094936  0.73940812    -0.14400
C393        C  0.23397161  0.16963512  0.77391756     0.36200
C394        C  0.23305740  0.18556640  0.81621725    -0.25800
C395        C  0.23374712  0.23247949  0.82623471    -0.15000
C396        C  0.23728395  0.26381223  0.79137632     0.37300
N397        N  0.23518088  0.31245371  0.79671613    -0.89300
H398        H  0.24057512  0.27226983  0.72364023     0.18400
H399        H  0.22876575  0.16097218  0.84166096     0.18400
N400        N  0.22833489  0.12165854  0.76648907    -0.88300
H401        H  0.26763737  0.32235188  0.81546079     0.35800
H402        H  0.19793034  0.32200034  0.81062888     0.40900
H403        H  0.19162251  0.11149913  0.78026927     0.40500
H404        H  0.26023257  0.10412530  0.78170546     0.35400
C405        C  0.82437697  0.75220087  0.05412214    -0.26300
C406        C  0.84661512  0.74080243  0.09396708    -0.14400
C407        C  0.89361352  0.76274719  0.10691035     0.36200
C408        C  0.91942805  0.79336310  0.07966571    -0.25800
C409        C  0.89963251  0.80325699  0.03883932    -0.15000
C410        C  0.85051652  0.78329529  0.02651345     0.37300
N411        N  0.82921355  0.79184869  0.98522116    -0.89300
H412        H  0.78918245  0.73416667  0.04303169     0.18400
H413        H  0.95690340  0.80796211  0.09029359     0.18400
N414        N  0.91741530  0.75157751  0.14689222    -0.88300
H415        H  0.78943290  0.80502714  0.98865470     0.35800
H416        H  0.82729474  0.76050357  0.96947449     0.40900
H417        H  0.92000135  0.78183448  0.16426975     0.40500
H418        H  0.95704234  0.73883902  0.14144764     0.35400
C419        C  0.17557348  0.18138789  0.93117581    -0.26300
C420        C  0.14233154  0.20933777  0.90518234    -0.14400
C421        C  0.08533634  0.20689522  0.90979103     0.36200
C422        C  0.06287927  0.17939577  0.94155115    -0.25800
C423        C  0.09573408  0.15239322  0.96858624    -0.15000
C424        C  0.15291867  0.15311305  0.96268248     0.37300
N425        N  0.18832835  0.12561037  0.98860921    -0.89300
H426        H  0.21955766  0.18301967  0.92849025     0.18400
H427        H  0.01902062  0.17985713  0.94533945     0.18400
N428        N  0.04991153  0.23315318  0.88276610    -0.88300
H429        H  0.21509420  0.14739901  0.00379076     0.35800
H430        H  0.21142299  0.10385505  0.96888693     0.40900
H431        H  0.02522358  0.25449560  0.90173191     0.40500
H432        H  0.02460452  0.21047081  0.86720037     0.35400
C433        C  0.07474797  0.80793718  0.83722051    -0.26300
C434        C  0.10186323  0.84673882  0.85129071    -0.14400
C435        C  0.14838702  0.86155247  0.82863191     0.36200
C436        C  0.16439471  0.83954011  0.79118822    -0.25800
C437        C  0.13500992  0.80298779  0.77569071    -0.15000
C438        C  0.09097050  0.78591615  0.79977505     0.37300
N439        N  0.05981086  0.74819574  0.78542114    -0.89300
H440        H  0.03953209  0.79575539  0.85445374     0.18400
H441        H  0.19722983  0.85351889  0.77236547     0.18400
N442        N  0.17724718  0.90112358  0.84169917    -0.88300
H443        H  0.08631735  0.72000047  0.78128104     0.35800
H444        H  0.04269431  0.75676752  0.75627790     0.40900
H445        H  0.17550881  0.92538025  0.81735148     0.40500
H446        H  0.21809376  0.89142022  0.84614583     0.35400
C447        C  0.38809215  0.55439563  0.81651334    -0.26300
C448        C  0.42546372  0.57821486  0.84110743    -0.14400
C449        C  0.44000332  0.62286372  0.82911325     0.36200
C450        C  0.41844503  0.64187106  0.79163301    -0.25800
C451        C  0.38432342  0.61635234  0.76564398    -0.15000
C452        C  0.36853014  0.57262425  0.77861055     0.37300
N453        N  0.33543136  0.54547093  0.75183321    -0.89300
H454        H  0.37599894  0.52028030  0.82576666     0.18400
H455        H  0.43180618  0.67507586  0.78096442     0.18400
N456        N  0.47729645  0.64813370  0.85426964    -0.88300
H457        H  0.30066579  0.53635220  0.76894151     0.35800
H458        H  0.35743928  0.51543154  0.74433445     0.40900
H459        H  0.45845374  0.65452193  0.88347814     0.40500
H460        H  0.48446929  0.68008113  0.84053346     0.35400
C461        C  0.26703907  0.66400641  0.71645272    -0.26300
C462        C  0.31342214  0.69169362  0.71294156    -0.14400
C463        C  0.30509366  0.73959434  0.71469398     0.36200
C464        C  0.25178186  0.75860534  0.71667111    -0.25800
C465        C  0.20532274  0.73106086  0.71771401    -0.15000
C466        C  0.21361552  0.68287101  0.71940590     0.37300
N467        N  0.16935211  0.65207507  0.72521008    -0.89300
H468        H  0.27220001  0.62706799  0.71610100     0.18400
H469        H  0.24663958  0.79554533  0.71596892     0.18400
N470        N  0.35044492  0.76939538  0.71473225    -0.88300
H471        H  0.16618503  0.63253904  0.69777654     0.35800
H472        H  0.13243128  0.66990096  0.72977209     0.40900
H473        H  0.34833909  0.78888514  0.74237443     0.40500
H474        H  0.34654777  0.79180054  0.68904530     0.35400
C475        C  0.07631901  0.25750197  0.61795266    -0.26300
C476        C  0.10989217  0.27791710  0.58703327    -0.14400
C477        C  0.16658377  0.26866485  0.58846938     0.36200
C478        C  0.18824115  0.24147116  0.62167704    -0.25800
C479        C  0.15446067  0.22209888  0.65300936    -0.15000
C480        C  0.09758952  0.23054836  0.65089976     0.37300
N481        N  0.06005425  0.21253743  0.68163077    -0.89300
H482        H  0.03259913  0.26374698  0.61745111     0.18400
H483        H  0.23170503  0.23418585  0.62229498     0.18400
N484        N  0.20210380  0.28740191  0.55684948    -0.88300
H485        H  0.03974140  0.24039489  0.69591046     0.35800
H486        H  0.08028817  0.19528602  0.70600670     0.40900
H487        H  0.19275036  0.27198703  0.52812620     0.40500
H488        H  0.24272828  0.27831226  0.56308177     0.35400
C489        C  0.86031273  0.63020249  0.40980017    -0.26300
C490        C  0.91751991  0.62700040  0.41269699    -0.14400
C491        C  0.94870045  0.65274595  0.38331947     0.36200
C492        C  0.92295483  0.68010566  0.35258877    -0.25800
C493        C  0.86606283  0.68445076  0.35022450    -0.15000
C494        C  0.83446783  0.65877424  0.37922220     0.37300
N495        N  0.77619533  0.66247601  0.37871846    -0.89300
H496        H  0.83543623  0.61027766  0.43113384     0.18400
H497        H  0.94819788  0.69928576  0.33089158     0.18400
N498        N  0.00712492  0.65203110  0.38472004    -0.88300
H499        H  0.76282730  0.67390950  0.40839698     0.35800
H500        H  0.76099209  0.62974074  0.37402063     0.40900
H501        H  0.02000934  0.68556048  0.38914150     0.40500
H502        H  0.02211146  0.64060508  0.35547480     0.35400
C503        C  0.11087171  0.64879804  0.60580534    -0.26300
C504        C  0.05895071  0.63330403  0.61782811    -0.14400
C505        C  0.02812016  0.65800461  0.64782416     0.36200
C506        C  0.05086441  0.69645186  0.66677958    -0.25800
C507        C  0.10375843  0.71070352  0.65583457    -0.15000
C508        C  0.13363376  0.68713744  0.62426236     0.37300
N509        N  0.18643204  0.70118104  0.60973121    -0.89300
H510        H  0.13441094  0.63059164  0.58178723     0.18400
H511        H  0.02714291  0.71532017  0.69023857     0.18400
N512        N  0.97468310  0.64372200  0.65972958    -0.88300
H513        H  0.21456534  0.67505182  0.61733286     0.35800
H514        H  0.19904578  0.73061711  0.62508749     0.40900
H515        H  0.94727279  0.67086014  0.65363885     0.40500
H516        H  0.97436089  0.63760802  0.69228400     0.35400
C517        C  0.85073163  0.09564584  0.21397808    -0.26300
C518        C  0.87206915  0.13675200  0.22802650    -0.14400
C519        C  0.91139379  0.15899272  0.20283659     0.36200
C520        C  0.93228146  0.13734300  0.16601463    -0.25800
C521        C  0.91358426  0.09436541  0.15362559    -0.15000
C522        C  0.87080719  0.07440084  0.17723706     0.37300
N523        N  0.85007598  0.03072915  0.16575064    -0.89300
H524        H  0.82164758  0.07779623  0.23365276     0.18400
H525        H  0.96394840  0.15348007  0.14756570     0.18400
N526        N  0.93293916  0.20171647  0.21664602    -0.88300
H527        H  0.80802820  0.03455143  0.16128836     0.35800
H528        H  0.85648989  0.00802174  0.19092199     0.40900
H529        H  0.90091575  0.22598885  0.21638581     0.40500
H530        H  0.96226713  0.21325992  0.19520352     0.35400
C531        C  0.92837162  0.26210949  0.32358994    -0.26300
C532        C  0.90347886  0.22922295  0.34931705    -0.14400
C533        C  0.91110094  0.23101692  0.39359148     0.36200
C534        C  0.94458064  0.26454464  0.41058084    -0.25800
C535        C  0.96945696  0.29730584  0.38474647    -0.15000
C536        C  0.96076515  0.29626643  0.34062338     0.37300
N537        N  0.98464934  0.32885305  0.31213012    -0.89300
H538        H  0.92508361  0.25988421  0.28958182     0.18400
H539        H  0.94903240  0.26637599  0.44457527     0.18400
N540        N  0.88566560  0.19936998  0.42214997    -0.88300
H541        H  0.00907350  0.31049377  0.29054276     0.35800
H542        H  0.01097191  0.35054398  0.32774753     0.40900
H543        H  0.85971433  0.17757406  0.40626772     0.40500
H544        H  0.86057735  0.21853684  0.44268259     0.35400
C545        C  0.59672939  0.38937689  0.19367109    -0.26300
C546        C  0.57125239  0.35817598  0.16719569    -0.14400
C547        C  0.57221893  0.31125494  0.17731809     0.36200
C548        C  0.59638484  0.29660603  0.21533189    -0.25800
C549        C  0.61839829  0.32840466  0.24330039    -0.15000
C550        C  0.61989687  0.37492105  0.23172319     0.37300
N551        N  0.64340102  0.40768762  0.25939106    -0.89300
H552        H  0.59804513  0.42529775  0.18494383     0.18400
H553        H  0.59455456  0.26091066  0.22447686     0.18400
N554        N  0.54845782  0.27896784  0.14916135    -0.88300
H555        H  0.61351589  0.43256668  0.26681047     0.35800
H556        H  0.67487390  0.42374747  0.24300399     0.40900
H557        H  0.50649935  0.28607890  0.14844732     0.40500
H558        H  0.55338470  0.24563625  0.16093497     0.35400
C559        C  0.70076583  0.20434449  0.29218484    -0.26300
C560        C  0.69521429  0.25241548  0.29231537    -0.14400
C561        C  0.74389607  0.27801200  0.28929993     0.36200
C562        C  0.79519068  0.25558215  0.28670387    -0.25800
C563        C  0.80078887  0.20773405  0.28842366    -0.15000
C564        C  0.75255664  0.18186922  0.29133702     0.37300
N565        N  0.75627916  0.13288977  0.29577384    -0.89300
H566        H  0.66459990  0.18406520  0.29490659     0.18400
H567        H  0.83114731  0.27613644  0.28473258     0.18400
N568        N  0.74340947  0.32696439  0.29136440    -0.88300
H569        H  0.71744792  0.11890124  0.29726272     0.35800
H570        H  0.77467065  0.12571019  0.32479167     0.40900
H571        H  0.72272119  0.33752683  0.31878296     0.40500
H572        H  0.72381387  0.34016155  0.26474676     0.35400
C573        C  0.84322084  0.06174178  0.86872539    -0.26300
C574        C  0.87461593  0.02827154  0.84726583    -0.14400
C575        C  0.86822982  0.02324612  0.80338715     0.36200
C576        C  0.82925535  0.05132685  0.78209793    -0.25800
C577        C  0.79744862  0.08459032  0.80402963    -0.15000
C578        C  0.80530921  0.08979945  0.84771960     0.37300
N579        N  0.77319021  0.12270695  0.87120489    -0.89300
H580        H  0.84819969  0.06622417  0.90243014     0.18400
H581        H  0.82196408  0.04585490  0.74884050     0.18400
N582        N  0.90031725  0.98936171  0.78094248    -0.88300
H583        H  0.79975422  0.14509588  0.88582954     0.35800
H584        H  0.75196353  0.10530231  0.89486847     0.40900
H585        H  0.94110145  0.99879100  0.78253754     0.40500
H586        H  0.89004101  0.98951502  0.74896686     0.35400
C587        C  0.58012056  0.34396964  0.81852661    -0.26300
C588        C  0.60369877  0.38433695  0.83411439    -0.14400
C589        C  0.65402949  0.39742712  0.81637111     0.36200
C590        C  0.67731810  0.37227965  0.78226837    -0.25800
C591        C  0.65162306  0.33376270  0.76541024    -0.15000
C592        C  0.60340298  0.31902718  0.78477384     0.37300
N593        N  0.57641790  0.27976901  0.76877275    -0.89300
H594        H  0.54208165  0.33200702  0.83169241     0.18400
H595        H  0.71356160  0.38503355  0.76693720     0.18400
N596        N  0.68140427  0.43642901  0.83230499    -0.88300
H597        H  0.53710067  0.29004264  0.75970235     0.35800
H598        H  0.57282866  0.25605094  0.79339930     0.40900
H599        H  0.68632127  0.45968210  0.80745617     0.40500
H600        H  0.72017211  0.42556902  0.84217551     0.35400
C601        C  0.76489833  0.38028776  0.61245921    -0.26300
C602        C  0.76824636  0.35864285  0.65239780    -0.14400
C603        C  0.81386478  0.36913475  0.67765555     0.36200
C604        C  0.85056766  0.40303893  0.66442341    -0.25800
C605        C  0.84442004  0.42691822  0.62587270    -0.15000
C606        C  0.80139904  0.41418159  0.59940502     0.37300
N607        N  0.79578251  0.43382243  0.55815474    -0.89300
H608        H  0.73269490  0.37146463  0.59098720     0.18400
H609        H  0.88511296  0.41014088  0.68426586     0.18400
N610        N  0.82555083  0.34524546  0.71611588    -0.88300
H611        H  0.75684776  0.44892018  0.55597999     0.35800
H612        H  0.79856730  0.40724329  0.53609654     0.40900
H613        H  0.83004675  0.31037778  0.70924714     0.40500
H614        H  0.79332217  0.35047177  0.73738179     0.35400
C615        C  0.75896041  0.24594887  0.74618038    -0.26300
C616        C  0.73228944  0.26077854  0.70940985    -0.14400
C617        C  0.71633633  0.22609161  0.68065503     0.36200
C618        C  0.72462999  0.17907699  0.69045500    -0.25800
C619        C  0.74700186  0.16385995  0.72925121    -0.15000
C620        C  0.76765356  0.19881809  0.75583847     0.37300
N621        N  0.79689064  0.18728073  0.79337741    -0.89300
H622        H  0.77181204  0.27140362  0.76857508     0.18400
H623        H  0.71045174  0.15426748  0.66806075     0.18400
N624        N  0.68876318  0.23705724  0.64213679    -0.88300
H625        H  0.77639596  0.20254437  0.81898575     0.35800
H626        H  0.83557319  0.20143594  0.79108311     0.40900
H627        H  0.71402886  0.25718385  0.62335135     0.40500
H628        H  0.65280133  0.25538581  0.64927893     0.35400
C629        C  0.39127734  0.13651581  0.62510151    -0.26300
C630        C  0.37586951  0.12590462  0.58313690    -0.14400
C631        C  0.32062703  0.13276858  0.57221195     0.36200
C632        C  0.28202714  0.14410844  0.60396966    -0.25800
C633        C  0.29670549  0.14765391  0.64691693    -0.15000
C634        C  0.35222010  0.14650840  0.65707364     0.37300
N635        N  0.36856951  0.15341232  0.70002681    -0.89300
H636        H  0.43370872  0.13343597  0.63404757     0.18400
H637        H  0.23938722  0.14717698  0.59553712     0.18400
N638        N  0.30311573  0.12534131  0.52964083    -0.88300
H639        H  0.41106173  0.15182532  0.70235026     0.35800
H640        H  0.35376089  0.12630182  0.71812290     0.40900
H641        H  0.32093375  0.15033366  0.51062865     0.40500
H642        H  0.26090614  0.13028259  0.52721458     0.35400
C643        C  0.70506661  0.80651538  0.42794909    -0.26300
C644        C  0.65057326  0.81009971  0.41534236    -0.14400
C645        C  0.63627794  0.78981985  0.37636744     0.36200
C646        C  0.67723194  0.77402827  0.34808452    -0.25800
C647        C  0.73243150  0.77639769  0.35844771    -0.15000
C648        C  0.74574790  0.78910306  0.40062431     0.37300
N649        N  0.79970669  0.78403446  0.41732040    -0.89300
H650        H  0.71685208  0.81936422  0.45853402     0.18400
H651        H  0.66582911  0.76153309  0.31727675     0.18400
N652        N  0.58018793  0.78563725  0.36508932    -0.88300
H653        H  0.82549363  0.80787149  0.40365148     0.35800
H654        H  0.81448375  0.75082255  0.41141167     0.40900
H655        H  0.57276569  0.75091395  0.36033504     0.40500
H656        H  0.57389176  0.80286081  0.33648592     0.35400
C657        C  0.53726518  0.16024407  0.36220644    -0.26300
C658        C  0.55458178  0.15080072  0.40338999    -0.14400
C659        C  0.59459251  0.17856643  0.42195405     0.36200
C660        C  0.61756380  0.21400088  0.39846093    -0.25800
C661        C  0.60079782  0.22302346  0.35731155    -0.15000
C662        C  0.55973258  0.19648900  0.33901242     0.37300
N663        N  0.53953410  0.20773896  0.29768584    -0.89300
H664        H  0.50725534  0.13871098  0.34780527     0.18400
H665        H  0.64701356  0.23606706  0.41291175     0.18400
N666        N  0.61143299  0.17083372  0.46486009    -0.88300
H667        H  0.50813059  0.18594577  0.28945575     0.35800
H668        H  0.57120478  0.20156177  0.27603444     0.40900
H669        H  0.57761534  0.17747354  0.48441814     0.40500
H670        H  0.64132545  0.19390876  0.47348854     0.35400
C671        C  0.40017254  0.72305223  0.60547158    -0.26300
C672        C  0.41398521  0.71514923  0.64759574    -0.14400
C673        C  0.45675032  0.74003726  0.66580531     0.36200
C674        C  0.48153660  0.77511297  0.64237914    -0.25800
C675        C  0.46580232  0.78418721  0.60080355    -0.15000
C676        C  0.42586097  0.75704912  0.58193047     0.37300
N677        N  0.41117456  0.76424502  0.53866410    -0.89300
H678        H  0.37016224  0.70195234  0.59047722     0.18400
H679        H  0.51191642  0.79617772  0.65690099     0.18400
N680        N  0.47639486  0.72826165  0.70718716    -0.88300
H681        H  0.36924375  0.77139854  0.53760249     0.35800
H682        H  0.41878948  0.73365426  0.52231924     0.40900
H683        H  0.44542945  0.73575506  0.72905350     0.40500
H684        H  0.50917995  0.74869303  0.71517975     0.35400
C685        C  0.60741389  0.03836431  0.65517364    -0.26300
C686        C  0.63792631  0.99944771  0.64217879    -0.14400
C687        C  0.69403801  0.99755963  0.65211424     0.36200
C688        C  0.71615109  0.03277545  0.67746232    -0.25800
C689        C  0.68361348  0.07060283  0.69129914    -0.15000
C690        C  0.62971385  0.07449985  0.67704502     0.37300
N691        N  0.59490135  0.11336178  0.68724675    -0.89300
H692        H  0.56502174  0.04164345  0.64784924     0.18400
H693        H  0.75737209  0.02885361  0.68911000     0.18400
N694        N  0.72752078  0.95931832  0.63845982    -0.88300
H695        H  0.61655165  0.13953906  0.70134772     0.35800
H696        H  0.56560889  0.10258082  0.70907934     0.40900
H697        H  0.71315637  0.93004027  0.65361247     0.40500
H698        H  0.76771871  0.96325884  0.64827719     0.35400
C699        C  0.15636565  0.91583521  0.23620506    -0.26300
C700        C  0.17110938  0.86890647  0.23161706    -0.14400
C701        C  0.17913804  0.85139486  0.19085204     0.36200
C702        C  0.16657379  0.87909389  0.15581303    -0.25800
C703        C  0.14368657  0.92366021  0.16067256    -0.15000
C704        C  0.14154616  0.94297910  0.20137206     0.37300
N705        N  0.12055125  0.98849270  0.20869659    -0.89300
H706        H  0.15251847  0.93076539  0.26740618     0.18400
H707        H  0.16947959  0.86392224  0.12463993     0.18400
N708        N  0.19587058  0.80455676  0.18485084    -0.88300
H709        H  0.08040021  0.99073277  0.19795813     0.35800
H710        H  0.14413665  0.01128259  0.19123421     0.40900
H711        H  0.23133282  0.80398508  0.16627580     0.40500
H712        H  0.16542305  0.78826251  0.16801585     0.35400
C713        C  0.26531652  0.87549039  0.38376014    -0.26300
C714        C  0.26666848  0.86208454  0.34097838    -0.14400
C715        C  0.30575862  0.88275981  0.31420592     0.36200
C716        C  0.34313097  0.91380384  0.33088057    -0.25800
C717        C  0.34001100  0.92838625  0.37311811    -0.15000
C718        C  0.29944583  0.90928508  0.39941367     0.37300
N719        N  0.29248221  0.92269798  0.44252847    -0.89300
H720        H  0.23601349  0.86064959  0.40529971     0.18400
H721        H  0.37432310  0.92743505  0.31023251     0.18400
N722        N  0.30638034  0.87452822  0.26969193    -0.88300
H723        H  0.28256435  0.95770035  0.44330616     0.35800
H724        H  0.32955679  0.91732157  0.45768571     0.40900
H725        H  0.34570691  0.86338524  0.26100470     0.40500
H726        H  0.29868055  0.90577861  0.25439574     0.35400
C727        C  0.29953985  0.61304900  0.15963511    -0.26300
C728        C  0.28132960  0.59306338  0.19723430    -0.14400
C729        C  0.30482100  0.55069544  0.21033284     0.36200
C730        C  0.34419029  0.52821211  0.18481895    -0.25800
C731        C  0.36119594  0.54763695  0.14660687    -0.15000
C732        C  0.33946781  0.59102221  0.13428168     0.37300
N733        N  0.35645839  0.61172958  0.09517100    -0.89300
H734        H  0.28063072  0.64493942  0.14906889     0.18400
H735        H  0.36110019  0.49530282  0.19471716     0.18400
N736        N  0.28685373  0.52926568  0.24853660    -0.88300
H737        H  0.33662513  0.64345113  0.09074363     0.35800
H738        H  0.34420834  0.59060953  0.07056948     0.40900
H739        H  0.27164816  0.49718629  0.24092445     0.40500
H740        H  0.32071139  0.52408912  0.26794342     0.35400
C741        C  0.16650331  0.51172197  0.29905221    -0.26300
C742        C  0.18447417  0.55698108  0.30613722    -0.14400
C743        C  0.20474917  0.56648546  0.34681646     0.36200
C744        C  0.19943866  0.53403933  0.37953952    -0.25800
C745        C  0.17585134  0.49078575  0.37324460    -0.15000
C746        C  0.16189744  0.47912735  0.33159643     0.37300
N747        N  0.14058945  0.43533422  0.32137654    -0.89300
H748        H  0.15496995  0.50098699  0.26780137     0.18400
H749        H  0.21211913  0.54369505  0.41092035     0.18400
N750        N  0.23064475  0.60855380  0.35639566    -0.88300
H751        H  0.10395313  0.43110620  0.33784305     0.35800
H752        H  0.16872068  0.40999507  0.33089650     0.40900
H753        H  0.20303566  0.63565305  0.35145383     0.40500
H754        H  0.26437648  0.61197825  0.33634170     0.35400
C755        C  0.26914884  0.69549372  0.25792293    -0.26300
C756        C  0.22383886  0.66860320  0.26916985    -0.14400
C757        C  0.17713389  0.69266733  0.28571875     0.36200
C758        C  0.17729339  0.74062126  0.29082347    -0.25800
C759        C  0.22212775  0.76747320  0.27907638    -0.15000
C760        C  0.26870290  0.74387348  0.26257601     0.37300
N761        N  0.31615735  0.76807368  0.25004364    -0.89300
H762        H  0.30511039  0.67867868  0.24453757     0.18400
H763        H  0.14094186  0.75710672  0.30377326     0.18400
N764        N  0.12832375  0.66926480  0.29678720    -0.88300
H765        H  0.33081448  0.78472558  0.27663991     0.35800
H766        H  0.30474970  0.79254008  0.22742562     0.40900
H767        H  0.09644235  0.68283717  0.27857707     0.40500
H768        H  0.11917392  0.67595442  0.32852646     0.35400
loop_ 
_geom_bond_atom_site_label_1 
_geom_bond_atom_site_label_2 
_geom_bond_distance 
_geom_bond_site_symmetry_2 
_ccdc_geom_bond_type 
N1            C5   1.363       .  A
N1            C2   1.373       .  A
N1          C756   1.480       .  S
C2            C3   1.389       .  A
C2          C742   1.522       .  S
C3            C4   1.363       .  A
C3            H6   1.082       .  S
C4            C5   1.379       .  A
C4            H7   1.083       .  S
C5          C728   1.484       .  S
N8           C12   1.367       .  A
N8            C9   1.370       .  A
N8          C759   1.474       .  S
C9           C10   1.391       .  A
C9          C714   1.511       .  S
C10          C11   1.360       .  A
C10          H13   1.081       .  S
C11          C12   1.382       .  A
C11          H14   1.083       .  S
C12         C700   1.493       .  S
Zr15         O16   2.439       .  S
Zr15         O17   2.486       .  S
Zr15         O18   2.506       .  S
Zr15         O21   2.493       .  S
Zr15         O23   2.402       .  S
Zr15         O24   2.401       .  S
Zr15         O25   2.447       .  S
Zr15         O26   2.411       .  S
O16          H72   0.990       .  S
O16          H80   0.990       .  S
O17          C37   1.292       .  A
O18          C39   1.285       .  A
O19         Zr29   2.406       .  S
O19          C38   1.280       .  A
O20         Zr28   2.394   1_565  S
O20          C39   1.266       .  A
O21          C38   1.298       .  A
O22         Zr30   2.357       .  S
O22          C37   1.270       .  A
O23         Zr28   2.403   1_565  S
O23         Zr30   2.366       .  S
O24         Zr29   2.392       .  S
O24         Zr30   2.387       .  S
O24          H59   0.966       .  S
O25         Zr28   2.415   1_565  S
O25         Zr45   2.375   1_565  S
O25          H62   0.965       .  S
O26         Zr29   2.383       .  S
O26         Zr45   2.375   1_565  S
Zr27         O52   2.439       .  S
Zr27         O46   2.484       .  S
Zr27         O54   2.508   1_545  S
Zr27         O42   2.518       .  S
Zr27         O33   2.405   1_545  S
Zr27         O34   2.411       .  S
Zr27         O35   2.375       .  S
Zr27         O36   2.410   1_545  S
Zr28         O47   2.443       .  S
Zr28         O40   2.438       .  S
Zr28         O41   2.400       .  S
Zr28         O34   2.381       .  S
Zr28         O35   2.369       .  S
Zr29         O31   2.436       .  S
Zr29         O53   2.437       .  S
Zr29         O55   2.412       .  S
Zr29         O33   2.386       .  S
Zr29         O36   2.391       .  S
Zr30         O56   2.433       .  S
Zr30         O57   2.436       .  S
Zr30         O32   2.438       .  S
Zr30         O33   2.370       .  S
Zr30         O34   2.369   1_565  S
O31          H68   0.990       .  S
O32          H63   0.990       .  S
O32          H77   0.990       .  S
O34          H60   0.963       .  S
O35         Zr45   2.383       .  S
O36         Zr45   2.382   1_565  S
O36          H61   0.964   1_565  S
C37         C675   1.468       .  S
C38         C644   1.499       .  S
C39         C686   1.507       .  S
O40          H76   0.989       .  S
O41          C43   1.279       .  A
O42          C43   1.302       .  A
C43         C630   1.508       .  S
O44         Zr45   2.435   1_565  S
O44          H73   0.990       .  S
Zr45         O48   2.437       .  S
Zr45         O49   2.443       .  S
Zr45         O50   2.362       .  S
O46          C51   1.292       .  A
O47          H64   0.990       .  S
O47          H79   0.990       .  S
O48          H65   0.991       .  S
O49          H69   0.990       .  S
O49          H78   0.990   1_545  S
O50          C51   1.269       .  A
C51         C658   1.475       .  S
O52          H71   0.990       .  S
O52          H75   0.990       .  S
O53          H67   0.990       .  S
O53          H74   0.990       .  S
O54          C58   1.297       .  A
O55          C58   1.274       .  A
O56          H66   0.990       .  S
O57          H70   0.990       .  S
C58         C717   1.496       .  S
N81          C85   1.376       .  A
N81          C82   1.368       .  A
N81         C616   1.471       .  S
C82          C83   1.376       .  A
C82         C591   1.490       .  S
C83          C84   1.359       .  A
C83          H86   1.083       .  S
C84          C85   1.390       .  A
C84          H87   1.082       .  S
C85         C602   1.519       .  S
N88          C92   1.370       .  A
N88          C89   1.374       .  A
N88         C619   1.487       .  S
C89          C90   1.382       .  A
C89         C577   1.488       .  S
C90          C91   1.350       .  A
C90          H93   1.083       .  S
C91          C92   1.377       .  A
C91          H94   1.083       .  S
C92         C689   1.485       .  S
N95          C99   1.361       .  A
N95          C96   1.360       .  A
N95         C560   1.463       .  S
C96          C97   1.377       .  A
C96         C661   1.465       .  S
C97          C98   1.360       .  A
C97         H100   1.083       .  S
C98          C99   1.383       .  A
C98         H101   1.083       .  S
C99         C549   1.472       .  S
N102        C106   1.362       .  A
N102        C103   1.365       .  A
N102        C563   1.459       .  S
C103        C104   1.381       .  A
C103        C532   1.481       .  S
C104        C105   1.362       .  A
C104        H107   1.083       .  S
C105        C106   1.380       .  A
C105        H108   1.083       .  S
C106        C518   1.477       .  S
Zr109       O110   2.438       .  S
Zr109       O111   2.477       .  S
Zr109       O112   2.507       .  S
Zr109       O115   2.533       .  S
Zr109       O117   2.415   1_655  S
Zr109       O118   2.398   1_655  S
Zr109       O119   2.434       .  S
Zr109       O120   2.387       .  S
O110        H166   0.990       .  S
O110        H174   0.990       .  S
O111        C131   1.291   1_655  A
O112        C133   1.292       .  A
O113       Zr123   2.393   1_655  S
O113        C132   1.278       .  A
O114       Zr122   2.397       .  S
O114        C133   1.269       .  A
O115        C132   1.305       .  A
O116       Zr124   2.374       .  S
O116        C131   1.274       .  A
O117       Zr122   2.409   1_455  S
O117       Zr124   2.377       .  S
O118       Zr123   2.369       .  S
O118       Zr124   2.389       .  S
O118        H153   0.964       .  S
O119       Zr122   2.394       .  S
O119       Zr139   2.371       .  S
O119        H156   0.960       .  S
O120       Zr123   2.377   1_655  S
O120       Zr139   2.371       .  S
Zr121       O146   2.440       .  S
Zr121       O140   2.481       .  S
Zr121       O148   2.522       .  S
Zr121       O136   2.514       .  S
Zr121       O127   2.419       .  S
Zr121       O128   2.430       .  S
Zr121       O129   2.388   1_455  S
Zr121       O130   2.412       .  S
Zr122       O141   2.437       .  S
Zr122       O134   2.442       .  S
Zr122       O135   2.399   1_655  S
Zr122       O128   2.404   1_655  S
Zr122       O129   2.386       .  S
Zr123       O125   2.439       .  S
Zr123       O147   2.443       .  S
Zr123       O149   2.381       .  S
Zr123       O127   2.395       .  S
Zr123       O130   2.401       .  S
Zr124       O150   2.437       .  S
Zr124       O151   2.435       .  S
Zr124       O126   2.438       .  S
Zr124       O127   2.370       .  S
Zr124       O128   2.371       .  S
O125        H162   0.990       .  S
O126        H157   0.990       .  S
O126        H171   0.990       .  S
O128        H154   0.962       .  S
O129       Zr139   2.386       .  S
O130       Zr139   2.378   1_455  S
O130        H155   0.965       .  S
C131        C504   1.472       .  S
C132        C490   1.508       .  S
C133        C605   1.505       .  S
O134        H170   0.990       .  S
O135        C137   1.279       .  A
O136        C137   1.300       .  A
C137        C476   1.500       .  S
O138       Zr139   2.435       .  S
O138        H167   0.990       .  S
Zr139       O142   2.435       .  S
Zr139       O143   2.435       .  S
Zr139       O144   2.380       .  S
O140        C145   1.291   1_455  A
O141        H158   0.990       .  S
O141        H173   0.989       .  S
O142        H159   0.990       .  S
O143        H163   0.990       .  S
O143        H172   0.990       .  S
O144        C145   1.271       .  A
C145        C535   1.472       .  S
O146        H165   0.990       .  S
O146        H169   0.990       .  S
O147        H161   0.989       .  S
O147        H168   0.990       .  S
O148        C152   1.291       .  A
O149        C152   1.262       .  A
O150        H160   0.990       .  S
O151        H164   0.990       .  S
C152        C745   1.506       .  S
N175        C179   1.365       .  A
N175        C176   1.360       .  A
N175        C462   1.462       .  S
C176        C177   1.380       .  A
C176        C451   1.470       .  S
C177        C178   1.360       .  A
C177        H180   1.083       .  S
C178        C179   1.379       .  A
C178        H181   1.083       .  S
C179        C672   1.471       .  S
N182        C186   1.363       .  A
N182        C183   1.358       .  A
N182        C465   1.458       .  S
C183        C184   1.380       .  A
C183        C437   1.469       .  S
C184        C185   1.362       .  A
C184        H187   1.083       .  S
C185        C186   1.379       .  A
C185        H188   1.082       .  S
C186        C507   1.469       .  S
Zr189       O190   2.440       .  S
Zr189       O191   2.463   1_655  S
Zr189       O192   2.497       .  S
Zr189       O195   2.507       .  S
Zr189       O197   2.401   1_655  S
Zr189       O198   2.408   1_655  S
Zr189       O199   2.423       .  S
Zr189       O200   2.408   1_556  S
O190        H246   0.990       .  S
O190        H254   0.991       .  S
O191        C211   1.289       .  A
O192        C213   1.296   1_565  A
O193       Zr203   2.398   1_655  S
O193        C212   1.268       .  A
O194       Zr202   2.407   1_655  S
O194        C213   1.276       .  A
O195        C212   1.292   1_556  A
O196       Zr204   2.389       .  S
O196        C211   1.275       .  A
O197       Zr202   2.386   1_565  S
O197       Zr204   2.386       .  S
O198       Zr203   2.390   1_556  S
O198       Zr204   2.368       .  S
O198        H233   0.965       .  S
O199       Zr202   2.398   1_665  S
O199       Zr219   2.369   1_556  S
O199        H236   0.971   1_565  S
O200       Zr203   2.386   1_655  S
O200       Zr219   2.377       .  S
Zr201       O226   2.441       .  S
Zr201       O220   2.497   1_455  S
Zr201       O228   2.484   1_545  S
Zr201       O216   2.476       .  S
Zr201       O207   2.419   1_545  S
Zr201       O208   2.449   1_554  S
Zr201       O209   2.397   1_455  S
Zr201       O210   2.397   1_445  S
Zr202       O221   2.440   1_455  S
Zr202       O214   2.434       .  S
Zr202       O215   2.395       .  S
Zr202       O208   2.400       .  S
Zr202       O209   2.402   1_456  S
Zr203       O205   2.437   1_455  S
Zr203       O227   2.443       .  S
Zr203       O229   2.375       .  S
Zr203       O207   2.385       .  S
Zr203       O210   2.390   1_455  S
Zr204       O230   2.437       .  S
Zr204       O231   2.437       .  S
Zr204       O206   2.438       .  S
Zr204       O207   2.386   1_556  S
Zr204       O208   2.378   1_565  S
O205        H242   0.990       .  S
O206        H237   0.990       .  S
O206        H251   0.990   1_565  S
O208        H234   0.964       .  S
O209       Zr219   2.371   1_545  S
O210       Zr219   2.385       .  S
O210        H235   0.965       .  S
C211        C434   1.482       .  S
C212        C409   1.498       .  S
C213        C574   1.478       .  S
O214        H250   0.990       .  S
O215        C217   1.268       .  A
O216        C217   1.281   1_554  A
C217        C423   1.497       .  S
O218       Zr219   2.438       .  S
O218        H247   0.990   1_565  S
Zr219       O222   2.437   1_565  S
Zr219       O223   2.439       .  S
Zr219       O224   2.383   1_565  S
O220        C225   1.296       .  A
O221        H238   0.990       .  S
O221        H253   0.989       .  S
O222        H239   0.990       .  S
O223        H243   0.989       .  S
O223        H252   0.990       .  S
O224        C225   1.275       .  A
C225        C521   1.491       .  S
O226        H245   0.991       .  S
O226        H249   0.990       .  S
O227        H241   0.990       .  S
O227        H248   0.991       .  S
O228        C232   1.293       .  A
O229        C232   1.273       .  A
O230        H240   0.990       .  S
O231        H244   0.990   1_556  S
C232        C703   1.482       .  S
N255        C259   1.361       .  A
N255        C256   1.365       .  A
N255        C392   1.471       .  S
C256        C257   1.388       .  A
C256        C633   1.501       .  S
C257        C258   1.366       .  A
C257        H260   1.083       .  S
C258        C259   1.383       .  A
C258        H261   1.083       .  S
C259        C479   1.493       .  S
N262        C266   1.369       .  A
N262        C263   1.361       .  A
N262        C395   1.474       .  S
C263        C264   1.384       .  A
C263        C420   1.493       .  S
C264        C265   1.364       .  A
C264        H267   1.082       .  S
C265        C266   1.387       .  A
C265        H268   1.083       .  S
C266        C381   1.512       .  S
Zr269       O270   2.440       .  S
Zr269       O271   2.486       .  S
Zr269       O272   2.520       .  S
Zr269       O275   2.491       .  S
Zr269       O277   2.391       .  S
Zr269       O278   2.421       .  S
Zr269       O279   2.423       .  S
Zr269       O280   2.421   1_556  S
O270        H326   0.990       .  S
O270        H334   0.990       .  S
O271        C291   1.293       .  A
O272        C293   1.300       .  A
O273       Zr283   2.409       .  S
O273        C292   1.266       .  A
O274       Zr282   2.395       .  S
O274        C293   1.276       .  A
O275        C292   1.290   1_556  A
O276       Zr284   2.372       .  S
O276        C291   1.273       .  A
O277       Zr282   2.386       .  S
O277       Zr284   2.389       .  S
O278       Zr283   2.408   1_556  S
O278       Zr284   2.377       .  S
O278        H313   0.966       .  S
O279       Zr282   2.394       .  S
O279       Zr299   2.387   1_556  S
O279        H316   0.965       .  S
O280       Zr283   2.394       .  S
O280       Zr299   2.374       .  S
Zr281       O306   2.440       .  S
Zr281       O300   2.464       .  S
Zr281       O308   2.480       .  S
Zr281       O296   2.490       .  S
Zr281       O287   2.407       .  S
Zr281       O288   2.438   1_554  S
Zr281       O289   2.391       .  S
Zr281       O290   2.405       .  S
Zr282       O301   2.442       .  S
Zr282       O294   2.435       .  S
Zr282       O295   2.403       .  S
Zr282       O288   2.398       .  S
Zr282       O289   2.396   1_556  S
Zr283       O285   2.436       .  S
Zr283       O307   2.440       .  S
Zr283       O309   2.407       .  S
Zr283       O287   2.377       .  S
Zr283       O290   2.389       .  S
Zr284       O310   2.436       .  S
Zr284       O311   2.437   1_556  S
Zr284       O286   2.437       .  S
Zr284       O287   2.367   1_556  S
Zr284       O288   2.374       .  S
O285        H322   0.990       .  S
O286        H317   0.990       .  S
O286        H331   0.990       .  S
O288        H314   0.964       .  S
O289       Zr299   2.371       .  S
O290       Zr299   2.390       .  S
O290        H315   0.965       .  S
C291        C448   1.476       .  S
C292        C364   1.486       .  S
C293        C588   1.508       .  S
O294        H330   0.990       .  S
O295        C297   1.270   1_556  A
O296        C297   1.290       .  A
C297        C378   1.502   1_554  S
O298       Zr299   2.435       .  S
O298        H327   0.990   1_554  S
Zr299       O302   2.435       .  S
Zr299       O303   2.440       .  S
Zr299       O304   2.382       .  S
O300        C305   1.288       .  A
O301        H318   0.990       .  S
O301        H333   0.990       .  S
O302        H319   0.990       .  S
O303        H323   0.990       .  S
O303        H332   0.989       .  S
O304        C305   1.272       .  A
C305        C546   1.462       .  S
O306        H325   0.991       .  S
O306        H329   0.990       .  S
O307        H321   0.990       .  S
O307        H328   0.990       .  S
O308        C312   1.294       .  A
O309        C312   1.279       .  A
O310        H320   0.990       .  S
O311        H324   0.990       .  S
C312        C731   1.479       .  S
N335        C339   1.366       .  A
N335        C336   1.366       .  A
N335        C350   1.479       .  S
C336        C337   1.381       .  A
C336        C647   1.501       .  S
C337        C338   1.366       .  A
C337        H340   1.082       .  S
C338        C339   1.388       .  A
C338        H341   1.082       .  S
C339        C493   1.508       .  S
N342        C346   1.369       .  A
N342        C343   1.365       .  A
N342        C353   1.469       .  S
C343        C344   1.378       .  A
C343        C406   1.485       .  S
C344        C345   1.359       .  A
C344        H347   1.083       .  S
C345        C346   1.384       .  A
C345        H348   1.083       .  S
C346        C367   1.493       .  S
C349        C350   1.424       .  A
C349        C354   1.419       .  A
C349        H356   1.082       .  S
C350        C351   1.412       .  A
C351        C352   1.416       .  A
C351        N358   1.431       .  S
C352        C353   1.417       .  A
C352        H357   1.083       .  S
C353        C354   1.418       .  A
C354        N355   1.437       .  S
N355        H359   1.045       .  S
N355        H360   1.044       .  S
N358        H361   1.045       .  S
N358        H362   1.045       .  S
C363        C364   1.403       .  A
C363        C368   1.403       .  A
C363        H370   1.081       .  S
C364        C365   1.418       .  A
C365        C366   1.411       .  A
C365        N372   1.438       .  S
C366        C367   1.408       .  A
C366        H371   1.083       .  S
C367        C368   1.417       .  A
C368        N369   1.439       .  S
N369        H373   1.045       .  S
N369        H374   1.044       .  S
N372        H375   1.043   1_554  S
N372        H376   1.046   1_554  S
C377        C378   1.415       .  A
C377        C382   1.407       .  A
C377        H384   1.082       .  S
C378        C379   1.410       .  A
C379        C380   1.410       .  A
C379        N386   1.438   1_556  S
C380        C381   1.420       .  A
C380        H385   1.083       .  S
C381        C382   1.408       .  A
C382        N383   1.431       .  S
N383        H387   1.045       .  S
N383        H388   1.045       .  S
N386        H389   1.046       .  S
N386        H390   1.046       .  S
C391        C392   1.402       .  A
C391        C396   1.415       .  A
C391        H398   1.083       .  S
C392        C393   1.425       .  A
C393        C394   1.419       .  A
C393        N400   1.431       .  S
C394        C395   1.407       .  A
C394        H399   1.083       .  S
C395        C396   1.435       .  A
C396        N397   1.430       .  S
N397        H401   1.044       .  S
N397        H402   1.043       .  S
N400        H403   1.046       .  S
N400        H404   1.045       .  S
C405        C406   1.415       .  A
C405        C410   1.418       .  A
C405        H412   1.083       .  S
C406        C407   1.397       .  A
C407        C408   1.398       .  A
C407        N414   1.432       .  S
C408        C409   1.412       .  A
C408        H413   1.079       .  S
C409        C410   1.409       .  A
C410        N411   1.431   1_554  S
N411        H415   1.045       .  S
N411        H416   1.046       .  S
N414        H417   1.046       .  S
N414        H418   1.046       .  S
C419        C420   1.409       .  A
C419        C424   1.411       .  A
C419        H426   1.084       .  S
C420        C421   1.408       .  A
C421        C422   1.402       .  A
C421        N428   1.433       .  S
C422        C423   1.408       .  A
C422        H427   1.081       .  S
C423        C424   1.414       .  A
C424        N425   1.432       .  S
N425        H429   1.046   1_556  S
N425        H430   1.046       .  S
N428        H431   1.046       .  S
N428        H432   1.046       .  S
C433        C434   1.403       .  A
C433        C438   1.401       .  A
C433        H440   1.084       .  S
C434        C435   1.418       .  A
C435        C436   1.399       .  A
C435        N442   1.433       .  S
C436        C437   1.394       .  A
C436        H441   1.084       .  S
C437        C438   1.416       .  A
C438        N439   1.432       .  S
N439        H443   1.045       .  S
N439        H444   1.045       .  S
N442        H445   1.046       .  S
N442        H446   1.045       .  S
C447        C448   1.406       .  A
C447        C452   1.396       .  A
C447        H454   1.084       .  S
C448        C449   1.409       .  A
C449        C450   1.410       .  A
C449        N456   1.437       .  S
C450        C451   1.406       .  A
C450        H455   1.082       .  S
C451        C452   1.402       .  A
C452        N453   1.433       .  S
N453        H457   1.045       .  S
N453        H458   1.046       .  S
N456        H459   1.045       .  S
N456        H460   1.046       .  S
C461        C462   1.414       .  A
C461        C466   1.412       .  A
C461        H468   1.083       .  S
C462        C463   1.410       .  A
C463        C464   1.410       .  A
C463        N470   1.428       .  S
C464        C465   1.410       .  A
C464        H469   1.083       .  S
C465        C466   1.418       .  A
C466        N467   1.436       .  S
N467        H471   1.045       .  S
N467        H472   1.043       .  S
N470        H473   1.046       .  S
N470        H474   1.046       .  S
C475        C476   1.413       .  A
C475        C480   1.402       .  A
C475        H482   1.084       .  S
C476        C477   1.411       .  A
C477        C478   1.415       .  A
C477        N484   1.436       .  S
C478        C479   1.412       .  A
C478        H483   1.083       .  S
C479        C480   1.413       .  A
C480        N481   1.440       .  S
N481        H485   1.046       .  S
N481        H486   1.043       .  S
N484        H487   1.046       .  S
N484        H488   1.046       .  S
C489        C490   1.408       .  A
C489        C494   1.420       .  A
C489        H496   1.083       .  S
C490        C491   1.423       .  A
C491        C492   1.402       .  A
C491        N498   1.434   1_655  S
C492        C493   1.401       .  A
C492        H497   1.084       .  S
C493        C494   1.420       .  A
C494        N495   1.431       .  S
N495        H499   1.046       .  S
N495        H500   1.045       .  S
N498        H501   1.046       .  S
N498        H502   1.046       .  S
C503        C504   1.410       .  A
C503        C508   1.395       .  A
C503        H510   1.084       .  S
C504        C505   1.400       .  A
C505        C506   1.404       .  A
C505        N512   1.432   1_455  S
C506        C507   1.412       .  A
C506        H511   1.083       .  S
C507        C508   1.406       .  A
C508        N509   1.439       .  S
N509        H513   1.046       .  S
N509        H514   1.043       .  S
N512        H515   1.046       .  S
N512        H516   1.046       .  S
C517        C518   1.396       .  A
C517        C522   1.400       .  A
C517        H524   1.084       .  S
C518        C519   1.414       .  A
C519        C520   1.414       .  A
C519        N526   1.437       .  S
C520        C521   1.404       .  A
C520        H525   1.083       .  S
C521        C522   1.418       .  A
C522        N523   1.433       .  S
N523        H527   1.046       .  S
N523        H528   1.046       .  S
N526        H529   1.046       .  S
N526        H530   1.045       .  S
C531        C532   1.404       .  A
C531        C536   1.402       .  A
C531        H538   1.083       .  S
C532        C533   1.417       .  A
C533        C534   1.404       .  A
C533        N540   1.439       .  S
C534        C535   1.403       .  A
C534        H539   1.084       .  S
C535        C536   1.416       .  A
C536        N537   1.440       .  S
N537        H541   1.046   1_655  S
N537        H542   1.044   1_655  S
N540        H543   1.044       .  S
N540        H544   1.046       .  S
C545        C546   1.401       .  A
C545        C550   1.397       .  A
C545        H552   1.085       .  S
C546        C547   1.405       .  A
C547        C548   1.407       .  A
C547        N554   1.436       .  S
C548        C549   1.405       .  A
C548        H553   1.082       .  S
C549        C550   1.407       .  A
C550        N551   1.433       .  S
N551        H555   1.046       .  S
N551        H556   1.045       .  S
N554        H557   1.046       .  S
N554        H558   1.046       .  S
C559        C560   1.407       .  A
C559        C564   1.416       .  A
C559        H566   1.081       .  S
C560        C561   1.426       .  A
C561        C562   1.407       .  A
C561        N568   1.430       .  S
C562        C563   1.401       .  A
C562        H567   1.079       .  S
C563        C564   1.420       .  A
C564        N565   1.437       .  S
N565        H569   1.046       .  S
N565        H570   1.046       .  S
N568        H571   1.045       .  S
N568        H572   1.042       .  S
C573        C574   1.403       .  A
C573        C578   1.397       .  A
C573        H580   1.084       .  S
C574        C575   1.408       .  A
C575        C576   1.418       .  A
C575        N582   1.436   1_545  S
C576        C577   1.412       .  A
C576        H581   1.083       .  S
C577        C578   1.408       .  A
C578        N579   1.434       .  S
N579        H583   1.046       .  S
N579        H584   1.046       .  S
N582        H585   1.045       .  S
N582        H586   1.046       .  S
C587        C588   1.417       .  A
C587        C592   1.405       .  A
C587        H594   1.083       .  S
C588        C589   1.412       .  A
C589        C590   1.416       .  A
C589        N596   1.431       .  S
C590        C591   1.410       .  A
C590        H595   1.082       .  S
C591        C592   1.403       .  A
C592        N593   1.433       .  S
N593        H597   1.046       .  S
N593        H598   1.046       .  S
N596        H599   1.046       .  S
N596        H600   1.046       .  S
C601        C602   1.414       .  A
C601        C606   1.408       .  A
C601        H608   1.083       .  S
C602        C603   1.421       .  A
C603        C604   1.413       .  A
C603        N610   1.429       .  S
C604        C605   1.411       .  A
C604        H609   1.084       .  S
C605        C606   1.411       .  A
C606        N607   1.431       .  S
N607        H611   1.045       .  S
N607        H612   1.046       .  S
N610        H613   1.045       .  S
N610        H614   1.043       .  S
C615        C616   1.403       .  A
C615        C620   1.420       .  A
C615        H622   1.083       .  S
C616        C617   1.428       .  A
C617        C618   1.417       .  A
C617        N624   1.432       .  S
C618        C619   1.416       .  A
C618        H623   1.081       .  S
C619        C620   1.430       .  A
C620        N621   1.429       .  S
N621        H625   1.046       .  S
N621        H626   1.046       .  S
N624        H627   1.045       .  S
N624        H628   1.044       .  S
C629        C630   1.422       .  A
C629        C634   1.414       .  A
C629        H636   1.083       .  S
C630        C631   1.411       .  A
C631        C632   1.410       .  A
C631        N638   1.437       .  S
C632        C633   1.415       .  A
C632        H637   1.083       .  S
C633        C634   1.402       .  A
C634        N635   1.438       .  S
N635        H639   1.045       .  S
N635        H640   1.046       .  S
N638        H641   1.045       .  S
N638        H642   1.045       .  S
C643        C644   1.400       .  A
C643        C648   1.402       .  A
C643        H650   1.084       .  S
C644        C645   1.421       .  A
C645        C646   1.410       .  A
C645        N652   1.433       .  S
C646        C647   1.399       .  A
C646        H651   1.084       .  S
C647        C648   1.430       .  A
C648        N649   1.434       .  S
N649        H653   1.042       .  S
N649        H654   1.044       .  S
N652        H655   1.046       .  S
N652        H656   1.045       .  S
C657        C658   1.400       .  A
C657        C662   1.406       .  A
C657        H664   1.084       .  S
C658        C659   1.420       .  A
C659        C660   1.398       .  A
C659        N666   1.439       .  S
C660        C661   1.392       .  A
C660        H665   1.084       .  S
C661        C662   1.414       .  A
C662        N663   1.438       .  S
N663        H667   1.046       .  S
N663        H668   1.044       .  S
N666        H669   1.046       .  S
N666        H670   1.046       .  S
C671        C672   1.396       .  A
C671        C676   1.398       .  A
C671        H678   1.084       .  S
C672        C673   1.418       .  A
C673        C674   1.409       .  A
C673        N680   1.438       .  S
C674        C675   1.398       .  A
C674        H679   1.084       .  S
C675        C676   1.412       .  A
C676        N677   1.433       .  S
N677        H681   1.046       .  S
N677        H682   1.046       .  S
N680        H683   1.043       .  S
N680        H684   1.046       .  S
C685        C686   1.406   1_545  A
C685        C690   1.389       .  A
C685        H692   1.069       .  S
C686        C687   1.414       .  A
C687        C688   1.426   1_565  A
C687        N694   1.436       .  S
C688        C689   1.416       .  A
C688        H693   1.083       .  S
C689        C690   1.403       .  A
C690        N691   1.440       .  S
N691        H695   1.044       .  S
N691        H696   1.046       .  S
N694        H697   1.046       .  S
N694        H698   1.046       .  S
C699        C700   1.416       .  A
C699        C704   1.402       .  A
C699        H706   1.083       .  S
C700        C701   1.400       .  A
C701        C702   1.403       .  A
C701        N708   1.431       .  S
C702        C703   1.413       .  A
C702        H707   1.084       .  S
C703        C704   1.408       .  A
C704        N705   1.432       .  S
N705        H709   1.045       .  S
N705        H710   1.045   1_565  S
N708        H711   1.045       .  S
N708        H712   1.046       .  S
C713        C714   1.411       .  A
C713        C718   1.403       .  A
C713        H720   1.083       .  S
C714        C715   1.418       .  A
C715        C716   1.411       .  A
C715        N722   1.430       .  S
C716        C717   1.406       .  A
C716        H721   1.084       .  S
C717        C718   1.415       .  A
C718        N719   1.429       .  S
N719        H723   1.045       .  S
N719        H724   1.041       .  S
N722        H725   1.046       .  S
N722        H726   1.046       .  S
C727        C728   1.398       .  A
C727        C732   1.406       .  A
C727        H734   1.084       .  S
C728        C729   1.415       .  A
C729        C730   1.406       .  A
C729        N736   1.431       .  S
C730        C731   1.399       .  A
C730        H735   1.084       .  S
C731        C732   1.418       .  A
C732        N733   1.439       .  S
N733        H737   1.046       .  S
N733        H738   1.045       .  S
N736        H739   1.046       .  S
N736        H740   1.045       .  S
C741        C742   1.422       .  A
C741        C746   1.406       .  A
C741        H748   1.081       .  S
C742        C743   1.415       .  A
C743        C744   1.409       .  A
C743        N750   1.430       .  S
C744        C745   1.416       .  A
C744        H749   1.084       .  S
C745        C746   1.410       .  A
C746        N747   1.431       .  S
N747        H751   1.044       .  S
N747        H752   1.045       .  S
N750        H753   1.042       .  S
N750        H754   1.045       .  S
C755        C756   1.418       .  A
C755        C760   1.420       .  A
C755        H762   1.083       .  S
C756        C757   1.426       .  A
C757        C758   1.410       .  A
C757        N764   1.432       .  S
C758        C759   1.412       .  A
C758        H763   1.081       .  S
C759        C760   1.417       .  A
C760        N761   1.428       .  S
N761        H765   1.044       .  S
N761        H766   1.045       .  S
N764        H767   1.046       .  S
N764        H768   1.046       .  S
