geometry optimzed in LAMMPS
_audit_creation_date              2020-12-01 
_audit_creation_method            'lammps2cif' 
_symmetry_space_group_name_H-M    'P1' 
_symmetry_Int_Tables_number       1 
_symmetry_cell_setting            triclinic 
loop_ 
_symmetry_equiv_pos_as_xyz 
  x,y,z 
_cell_length_a                    25.10491202 
_cell_length_b                    44.64070151956297 
_cell_length_c                    41.45698159230703 
_cell_angle_alpha                 91.24054578748546 
_cell_angle_beta                  89.67306724613591 
_cell_angle_gamma                 90.11655653926749 
loop_ 
_atom_site_label 
_atom_site_type_symbol 
_atom_site_fract_x 
_atom_site_fract_y 
_atom_site_fract_z 
_atom_site_charge 
O1          O  0.73374650  0.86614009  0.25416186    -0.56800
C2          C  0.59459631  0.81735830  0.24940335     0.75800
O3          O  0.73608610  0.77292323  0.20830725    -0.58000
C4          C  0.77696131  0.86492700  0.23837228     0.75800
C5          C  0.72741917  0.78532751  0.30915867     0.78200
Cd6        Cd  0.70862766  0.81306632  0.24726618     1.37500
O7          O  0.62346140  0.84063902  0.25162931    -0.56800
O8          O  0.70356012  0.81001380  0.30649681    -0.55600
C9          C  0.70905862  0.78272453  0.18494035     0.78100
O10         O  0.74626470  0.77410601  0.28316381    -0.58000
O11         O  0.61906941  0.79270968  0.24643078    -0.56500
O12         O  0.79019396  0.83932943  0.22740393    -0.56500
O13         O  0.68351047  0.80667075  0.19059323    -0.55600
O14         O  0.65107923  0.66982214  0.47866865    -0.56800
C15         C  0.84942239  0.69266529  0.99442085     0.75800
O16         O  0.70798552  0.73842622  0.45953495    -0.58000
C17         C  0.66628098  0.64426569  0.48745685     0.75800
C18         C  0.71614437  0.72272339  0.05860527     0.78200
Cd19       Cd  0.73480190  0.69651217  0.49462999     1.37500
O20         O  0.82102812  0.66914405  0.99397709    -0.56800
O21         O  0.74178022  0.69881693  0.05342590    -0.55600
C22         C  0.72872394  0.72735998  0.43394700     0.78100
O23         O  0.69616810  0.73444975  0.03383965    -0.58000
O24         O  0.82454755  0.71725995  0.99509678    -0.56500
O25         O  0.71191919  0.64313684  0.50010745    -0.56500
O26         O  0.75006770  0.70186387  0.43654938    -0.55600
N27         N  0.87376275  0.00329674  0.21684346    -0.02500
C28         C  0.85425586  0.97938726  0.19969457     0.00100
C29         C  0.82293126  0.98905775  0.17465720    -0.22800
C30         C  0.82309950  0.01975080  0.17631370    -0.23000
C31         C  0.85429692  0.02798249  0.20236719     0.00000
H32         H  0.79808466  0.97532460  0.15901376     0.13800
H33         H  0.79836042  0.03437462  0.16229754     0.13800
N34         N  0.57355631  0.50493607  0.96648324    -0.02500
C35         C  0.59587452  0.48018985  0.95239502     0.00100
C36         C  0.62677325  0.48825965  0.92629185    -0.22800
C37         C  0.62409076  0.51889057  0.92450314    -0.23000
C38         C  0.59153163  0.52866097  0.94957329     0.00000
H39         H  0.65313529  0.47379540  0.91232292     0.13800
H40         H  0.64800381  0.53269618  0.90887567     0.13800
O41         O  0.82578339  0.34073621  0.00155169    -0.56800
C42         C  0.67741702  0.36667035  0.99295074     0.75800
O43         O  0.69673789  0.27472279  0.46428535    -0.58000
C44         C  0.85547616  0.31780918  0.00054117     0.75800
C45         C  0.71930352  0.28432685  0.06458002     0.78200
Cd46       Cd  0.74040677  0.31210808  0.00203294     1.37500
O47         O  0.66251801  0.34123523  0.98248032    -0.56800
O48         O  0.74472549  0.30856742  0.06172363    -0.55600
C49         C  0.72930800  0.27836556  0.44117640     0.78100
O50         O  0.70120003  0.27321209  0.03851873    -0.58000
O51         O  0.72019196  0.36675041  0.00891300    -0.56500
O52         O  0.83191635  0.29272078  0.00069156    -0.56500
O53         O  0.76603303  0.29724684  0.44652611    -0.55600
O54         O  0.71882938  0.13912943  0.25292717    -0.56800
C55         C  0.58481716  0.19242128  0.25174350     0.75800
O56         O  0.74208016  0.22905821  0.28968683    -0.58000
C57         C  0.76678241  0.14025225  0.24341981     0.75800
C58         C  0.70837358  0.22521019  0.18909605     0.78200
Cd59       Cd  0.69953431  0.19351348  0.24983760     1.37500
O60         O  0.61097921  0.16853128  0.24622559    -0.56800
O61         O  0.68343369  0.20070680  0.19165126    -0.55600
C62         C  0.71753109  0.21939205  0.31420399     0.78100
O63         O  0.73050260  0.23495703  0.21469529    -0.58000
O64         O  0.61190238  0.21611184  0.25570555    -0.56500
O65         O  0.78443647  0.16609583  0.23732768    -0.56500
O66         O  0.68697375  0.19730763  0.30901860    -0.55600
O67         O  0.33664111  0.83912963  0.26267932    -0.56800
C68         C  0.18479950  0.86909969  0.26238140     0.75800
O69         O  0.21617724  0.77265610  0.22092509    -0.58000
C70         C  0.36311388  0.81604973  0.25436596     0.75800
C71         C  0.23464909  0.78432624  0.31948789     0.78200
Cd72       Cd  0.24820826  0.81422565  0.25780760     1.37500
O73         O  0.23142830  0.86838046  0.25063804    -0.56800
O74         O  0.26695423  0.80580032  0.31574285    -0.55600
C75         C  0.22661009  0.78592241  0.19488734     0.78100
O76         O  0.20803959  0.77680390  0.29467969    -0.58000
O77         O  0.16664291  0.84416162  0.27140694    -0.56500
O78         O  0.33610048  0.79277975  0.24804219    -0.56500
O79         O  0.24379355  0.81240510  0.19830342    -0.55600
O80         O  0.10870085  0.66864399  0.00865122    -0.56800
C81         C  0.26578394  0.64413236  0.00866239     0.75800
O82         O  0.23058343  0.73731624  0.47084831    -0.58000
C83         C  0.08032870  0.69132995  0.00288404     0.75800
C84         C  0.20656811  0.72521354  0.06891329     0.78200
Cd85       Cd  0.19537588  0.69605591  0.00536613     1.37500
O86         O  0.22082383  0.64237051  0.99506119    -0.56800
O87         O  0.18192005  0.70070583  0.06467897    -0.55600
C88         C  0.21641972  0.72560550  0.44411041     0.78100
O89         O  0.22609444  0.73653804  0.04362777    -0.58000
O90         O  0.27900600  0.66993302  0.01900201    -0.56500
O91         O  0.10536204  0.71561057  0.99906653    -0.56500
O92         O  0.19536244  0.69992298  0.44577672    -0.55600
N93         N  0.37706351  0.51004871  0.03687803    -0.02500
C94         C  0.35756532  0.48682921  0.05393651     0.00100
C95         C  0.32862455  0.49739941  0.08021107    -0.22800
C96         C  0.32932862  0.52808344  0.07887063    -0.23000
C97         C  0.35867763  0.53537909  0.05180539     0.00000
H98         H  0.30396718  0.48428292  0.09611740     0.13800
H99         H  0.30538357  0.54320319  0.09364261     0.13800
O100        O  0.11425340  0.34637523  0.01098621    -0.56800
C101        C  0.26676352  0.37433850  0.51342994     0.75800
O102        O  0.23603363  0.28022104  0.04253887    -0.58000
C103        C  0.08663649  0.32314482  0.00494427     0.75800
C104        C  0.22044980  0.29300157  0.44321361     0.78200
Cd105      Cd  0.20165223  0.32037234  0.50687274     1.37500
O106        O  0.22035975  0.37480673  0.50175319    -0.56800
O107        O  0.19443638  0.31690096  0.44779725    -0.55600
C108        C  0.21197462  0.28934829  0.06787395     0.78100
O109        O  0.24181476  0.28233045  0.46811540    -0.58000
O110        O  0.28400501  0.34882929  0.52092615    -0.56500
O111        O  0.11243153  0.29906649  0.00049885    -0.56500
O112        O  0.18409925  0.31268519  0.06479678    -0.55600
O113        O  0.32436646  0.17342484  0.25198245    -0.56800
C114        C  0.17342088  0.14798224  0.25946771     0.75800
O115        O  0.20447879  0.23967313  0.29396971    -0.58000
C116        C  0.35404918  0.19641570  0.25208187     0.75800
C117        C  0.22087291  0.23061127  0.19249837     0.78200
Cd118      Cd  0.23982614  0.20170199  0.25409499     1.37500
O119        O  0.21782810  0.14792700  0.24495701    -0.56800
O120        O  0.24429320  0.20576872  0.19486248    -0.55600
C121        C  0.23422609  0.23212920  0.31710432     0.78100
O122        O  0.20318691  0.24185488  0.21875981    -0.58000
O123        O  0.15849345  0.17311380  0.27091903    -0.56500
O124        O  0.33078038  0.22154103  0.25300352    -0.56500
O125        O  0.26533113  0.21045853  0.31102872    -0.55600
N126        N  0.07723662  0.00852239  0.27822856    -0.02500
C127        C  0.09248599  0.03340540  0.29540109     0.00100
C128        C  0.12096446  0.02541877  0.32231564    -0.22800
C129        C  0.12403322  0.99479157  0.32165945    -0.23000
C130        C  0.09733576  0.98495064  0.29441506     0.00000
H131        H  0.14243983  0.04032418  0.33858278     0.13800
H132        H  0.14830830  0.98136821  0.33726090     0.13800
C133        C  0.14233365  0.11990426  0.26439027     0.00800
C134        C  0.11047864  0.11755998  0.29224301    -0.11100
C135        C  0.08915140  0.08986353  0.30136381     0.03100
C136        C  0.09817708  0.06392175  0.28201187     0.00700
C137        C  0.12545412  0.06687297  0.25262063    -0.11000
C138        C  0.14786983  0.09436546  0.24380505     0.02900
H139        H  0.10529094  0.13693385  0.30817629     0.15900
H140        H  0.13343646  0.04712577  0.23780372     0.15900
C141        C  0.17808808  0.09529546  0.21410542     0.37600
C142        C  0.06097414  0.08821695  0.33173238     0.37500
N143        N  0.20236984  0.09587960  0.19031256    -0.42800
N144        N  0.03868176  0.08685944  0.35616843    -0.42800
C145        C  0.23238687  0.24774250  0.34946833     0.00800
C146        C  0.19167989  0.26863890  0.35584376    -0.11100
C147        C  0.18719882  0.28358487  0.38587012     0.03100
C148        C  0.22447848  0.27813070  0.41062068     0.00700
C149        C  0.26528977  0.25730193  0.40432241    -0.11000
C150        C  0.26969774  0.24224515  0.37427181     0.02900
H151        H  0.16240096  0.27304450  0.33741589     0.15900
H152        H  0.29413895  0.25277778  0.42296343     0.15900
C153        C  0.31335931  0.22152730  0.36981720     0.37600
C154        C  0.14226765  0.30334971  0.39085067     0.37500
N155        N  0.34846943  0.20496649  0.36644779    -0.42800
N156        N  0.10608479  0.31905069  0.39484485    -0.42800
C157        C  0.21663787  0.24564087  0.16069303     0.00800
C158        C  0.24849716  0.23503838  0.13481847    -0.11100
C159        C  0.24832654  0.24881357  0.10467647     0.03100
C160        C  0.21508343  0.27381919  0.09949916     0.00700
C161        C  0.18305335  0.28433052  0.12536784    -0.11000
C162        C  0.18354632  0.27066450  0.15558146     0.02900
H163        H  0.27463084  0.21607304  0.13823466     0.15900
H164        H  0.15707038  0.30337063  0.12203855     0.15900
C165        C  0.14892097  0.28267016  0.18056996     0.37600
C166        C  0.28362915  0.23692793  0.07995769     0.37500
N167        N  0.12103668  0.29237329  0.20049929    -0.42800
N168        N  0.31223687  0.22727019  0.06038251    -0.42800
C169        C  0.34673939  0.45673503  0.03972581     0.00800
C170        C  0.31660372  0.45510882  0.51134895    -0.11100
C171        C  0.29136386  0.42838896  0.50163584     0.03100
C172        C  0.29798318  0.40219049  0.51980171     0.00700
C173        C  0.33184102  0.40336213  0.04673765    -0.11000
C174        C  0.35511623  0.43044944  0.05719134     0.05100
H175        H  0.30920259  0.47538299  0.49811963     0.15900
H176        H  0.33729136  0.38351713  0.06098278     0.15900
C177        C  0.38505950  0.43110688  0.08682235     0.37600
C178        C  0.25734058  0.42900212  0.47370265     0.37500
N179        N  0.40878672  0.43163045  0.11067866    -0.42800
N180        N  0.22989032  0.42989343  0.45141220    -0.42800
C181        C  0.29948894  0.61734038  0.01460774     0.00800
C182        C  0.33251793  0.61788915  0.04190529    -0.11100
C183        C  0.35702750  0.59176527  0.05263472     0.03100
C184        C  0.34963704  0.56436353  0.03572535     0.00700
C185        C  0.32089514  0.56429454  0.50671451    -0.11000
C186        C  0.29587921  0.59043075  0.49604579     0.02900
H187        H  0.33651287  0.63838083  0.05622176     0.15900
H188        H  0.31443835  0.54331892  0.49364839     0.15900
C189        C  0.26616613  0.58879274  0.46633886     0.37600
C190        C  0.38714195  0.59323759  0.08217710     0.37500
N191        N  0.24277134  0.58736448  0.44237469    -0.42800
N192        N  0.41122465  0.59441794  0.10588500    -0.42800
C193        C  0.11023198  0.95534254  0.27953379     0.00800
C194        C  0.08621147  0.92953191  0.29170149    -0.11100
C195        C  0.10770458  0.90094462  0.28509679     0.03100
C196        C  0.15471145  0.89789811  0.26612647     0.00700
C197        C  0.17652246  0.92378764  0.25243190    -0.11000
C198        C  0.15518555  0.95222235  0.25919141     0.02900
H199        H  0.05237792  0.93187298  0.30792896     0.15900
H200        H  0.21227400  0.92209561  0.23772392     0.15900
C201        C  0.18360462  0.97811480  0.24772939     0.37600
C202        C  0.08236999  0.87557590  0.29983477     0.37500
N203        N  0.20674776  0.99882534  0.23881088    -0.42800
N204        N  0.06192277  0.85531601  0.31173811    -0.42800
C205        C  0.21169733  0.74014643  0.10147109     0.00800
C206        C  0.22670497  0.77047405  0.10334080    -0.11100
C207        C  0.23112167  0.78590017  0.13310565     0.03100
C208        C  0.22047184  0.77100165  0.16235550     0.00700
C209        C  0.20583405  0.74058162  0.16048834    -0.11000
C210        C  0.20159611  0.72513586  0.13068665     0.02900
H211        H  0.23467253  0.78242088  0.08131967     0.15900
H212        H  0.19828920  0.72854575  0.18249986     0.15900
C213        C  0.18850399  0.69363742  0.13118827     0.37600
C214        C  0.24665066  0.81704987  0.13249606     0.37500
N215        N  0.17821822  0.66837184  0.13185227    -0.42800
N216        N  0.25913679  0.84200330  0.13183936    -0.42800
C217        C  0.22903178  0.76904813  0.35123615     0.00800
C218        C  0.25878706  0.77976493  0.37782723    -0.11100
C219        C  0.25540205  0.76631416  0.40815561     0.03100
C220        C  0.22236461  0.74098526  0.41249952     0.00700
C221        C  0.19264285  0.73027436  0.38594275    -0.11000
C222        C  0.19516542  0.74406646  0.35581610     0.02900
H223        H  0.28479103  0.79896074  0.37506440     0.15900
H224        H  0.16640290  0.71118496  0.38879050     0.15900
C225        C  0.16186647  0.73209748  0.33032527     0.37600
C226        C  0.28663646  0.77903552  0.43419603     0.37500
N227        N  0.13491859  0.72256562  0.30998469    -0.42800
N228        N  0.31152478  0.78937449  0.45506389    -0.42800
C229        C  0.52568981  0.19293333  0.25306446     0.00800
C230        C  0.49672084  0.17037333  0.23671429    -0.11100
C231        C  0.44084856  0.17090222  0.23606102     0.03100
C232        C  0.41291789  0.19441815  0.25195460     0.00700
C233        C  0.44180603  0.21675922  0.26854805    -0.11000
C234        C  0.49745851  0.21602681  0.26965265     0.02900
H235        H  0.51777282  0.15257448  0.22382724     0.15900
H236        H  0.42070321  0.23457557  0.28140473     0.15900
C237        C  0.52410641  0.23852047  0.28931347     0.37600
C238        C  0.41339531  0.14779305  0.21775336     0.37500
N239        N  0.54527624  0.25639948  0.30533032    -0.42800
N240        N  0.39136633  0.12931836  0.20301770    -0.42800
C241        C  0.91457475  0.32006750  0.99966299     0.00800
C242        C  0.93976984  0.34523259  0.01376256    -0.11100
C243        C  0.99558466  0.34720770  0.01535114     0.03100
C244        C  0.02742856  0.32350745  0.00277196     0.00700
C245        C  0.00203920  0.29893927  0.48760737    -0.11000
C246        C  0.94649494  0.29716623  0.48565807     0.02900
H247        H  0.91577339  0.36314971  0.02427068     0.15900
H248        H  0.02571556  0.28097477  0.47690860     0.15900
C249        C  0.92358864  0.27211847  0.46794087     0.37600
C250        C  0.01868458  0.37344463  0.03074795     0.37500
N251        N  0.90536590  0.25217463  0.45348430    -0.42800
N252        N  0.03711895  0.39453654  0.04301935    -0.42800
C253        C  0.71332567  0.26969704  0.09661145     0.00800
C254        C  0.74388385  0.28064363  0.12271615    -0.11100
C255        C  0.74300176  0.26683187  0.15284473     0.03100
C256        C  0.71065842  0.24130006  0.15774128     0.00700
C257        C  0.67918675  0.23072777  0.13183800    -0.11000
C258        C  0.68009827  0.24455208  0.10167824     0.02900
H259        H  0.76971265  0.29985911  0.11947256     0.15900
H260        H  0.65351237  0.21144765  0.13506835     0.15900
C261        C  0.64596365  0.23246756  0.07666314     0.37600
C262        C  0.77686900  0.27912812  0.17787152     0.37500
N263        N  0.61839750  0.22269861  0.05675908    -0.42800
N264        N  0.80417546  0.28903864  0.19782737    -0.42800
C265        C  0.72571312  0.26187559  0.40938958     0.00800
C266        C  0.76838842  0.26445807  0.38739437    -0.11100
C267        C  0.76718147  0.25053204  0.35672462     0.03100
C268        C  0.72238108  0.23345939  0.34709396     0.00700
C269        C  0.68015523  0.23022445  0.36926909    -0.11000
C270        C  0.68129935  0.24415899  0.40002162     0.02900
H271        H  0.80327129  0.27747138  0.39413703     0.15900
H272        H  0.64538301  0.21719606  0.36232703     0.15900
C273        C  0.63572294  0.24023421  0.42092577     0.37600
C274        C  0.81332218  0.25349731  0.33610608     0.37500
N275        N  0.59898562  0.23692120  0.43747651    -0.42800
N276        N  0.85052271  0.25582370  0.31973312    -0.42800
C277        C  0.52392851  0.50514649  0.98425523     0.00800
C278        C  0.52367691  0.50287699  0.01786157    -0.11100
C279        C  0.47559654  0.50450830  0.03531889     0.03100
C280        C  0.42665010  0.50841345  0.01910600     0.00700
C281        C  0.42689235  0.51027058  0.48547252    -0.11000
C282        C  0.47496086  0.50864368  0.46804258     0.02900
H283        H  0.56102749  0.50023143  0.03043713     0.15900
H284        H  0.38955136  0.51281971  0.47286685     0.15900
C285        C  0.47340744  0.51034542  0.43336149     0.37600
C286        C  0.47723381  0.50239788  0.06997452     0.37500
N287        N  0.47247935  0.51166872  0.40552588    -0.42800
N288        N  0.47843422  0.50064537  0.09777112    -0.42800
C289        C  0.64804020  0.39499061  0.98608576     0.00800
C290        C  0.66300202  0.42160358  0.00249911    -0.11100
C291        C  0.64251657  0.44950129  0.99374993     0.03100
C292        C  0.60529934  0.45129007  0.96845639     0.00700
C293        C  0.58819340  0.42473022  0.45309263    -0.11000
C294        C  0.60892116  0.39677277  0.46162075     0.02900
H295        H  0.69295457  0.42087560  0.02120475     0.15900
H296        H  0.56092346  0.42603048  0.43297042     0.15900
C297        C  0.59209473  0.37076024  0.44303653     0.37600
C298        C  0.66466602  0.47619894  0.00877938     0.37500
N299        N  0.57870777  0.34997199  0.42798647    -0.42800
N300        N  0.68291650  0.49752914  0.02064791    -0.42800
C301        C  0.02644776  0.00666951  0.26212476     0.00800
C302        C  0.97967817  0.00701046  0.28096157    -0.11100
C303        C  0.92915346  0.00537964  0.26674196     0.03100
C304        C  0.92467476  0.00322985  0.23291868     0.00700
C305        C  0.97150406  0.00247392  0.21406770    -0.11000
C306        C  0.02210166  0.00412681  0.22834976     0.02900
H307        H  0.98295363  0.00868190  0.30701874     0.15900
H308        H  0.96823464  0.00097806  0.18800573     0.15900
C309        C  0.06863075  0.00357283  0.20786480     0.37600
C310        C  0.88296387  0.00586380  0.28749868     0.37500
N311        N  0.10545747  0.00323637  0.19094661    -0.42800
N312        N  0.84647615  0.00600104  0.30469418    -0.42800
C313        C  0.79931287  0.11265771  0.23813494     0.00800
C314        C  0.83709135  0.11165351  0.21290091    -0.11100
C315        C  0.86046420  0.08439352  0.20282666     0.03100
C316        C  0.84691635  0.05767310  0.21846106     0.00700
C317        C  0.81324304  0.05919019  0.24552760    -0.11000
C318        C  0.78969130  0.08628361  0.25555649     0.02900
H319        H  0.84565355  0.13175544  0.19957507     0.15900
H320        H  0.80149694  0.03869561  0.25718379     0.15900
C321        C  0.75460173  0.08609721  0.28325156     0.37600
C322        C  0.89584986  0.08395812  0.17524799     0.37500
N323        N  0.72668712  0.08582613  0.30555282    -0.42800
N324        N  0.92431253  0.08353554  0.15318492    -0.42800
C325        C  0.90853236  0.69167337  0.99477782     0.00800
C326        C  0.93427017  0.66639806  0.00691112    -0.11100
C327        C  0.98997285  0.66542536  0.00970161     0.03100
C328        C  0.02120021  0.69018659  0.00013576     0.00700
C329        C  0.99527405  0.71506076  0.48719839    -0.11000
C330        C  0.93986548  0.71596636  0.48426064     0.02900
H331        H  0.91072739  0.64755963  0.01498120     0.15900
H332        H  0.01842535  0.73401229  0.47902929     0.15900
C333        C  0.91668485  0.74183250  0.46940103     0.37600
C334        C  0.01341590  0.63901814  0.02317393     0.37500
N335        N  0.89829442  0.76252191  0.45735872    -0.42800
N336        N  0.03187977  0.61775603  0.03399122    -0.42800
C337        C  0.63426983  0.61674269  0.48154502     0.00800
C338        C  0.60852058  0.61287728  0.45174602    -0.11100
C339        C  0.58907058  0.58466422  0.44185464     0.03100
C340        C  0.59393970  0.55997193  0.96234109     0.00700
C341        C  0.61369039  0.56479350  0.99362421    -0.11000
C342        C  0.63451971  0.59273091  0.00318602     0.02900
H343        H  0.60733744  0.63127361  0.43510350     0.15900
H344        H  0.61727062  0.54607887  0.00967462     0.15900
C345        C  0.65786879  0.59578816  0.03483666     0.37600
C346        C  0.56693639  0.58118519  0.40992648     0.37500
N347        N  0.67660355  0.59813481  0.06020908    -0.42800
N348        N  0.54928290  0.57840360  0.38430834    -0.42800
C349        C  0.53539953  0.81818387  0.25008998     0.00800
C350        C  0.50774871  0.79122824  0.24428596    -0.11100
C351        C  0.45215982  0.78997802  0.24514687     0.03100
C352        C  0.42234844  0.81623393  0.25226209     0.00700
C353        C  0.44993570  0.84333474  0.25764066    -0.11000
C354        C  0.50576239  0.84458605  0.25648884     0.02900
H355        H  0.52964347  0.77076457  0.23899678     0.15900
H356        H  0.42785644  0.86374037  0.26284961     0.15900
C357        C  0.53113402  0.87325365  0.26219322     0.37600
C358        C  0.42748936  0.76120676  0.23871102     0.37500
N359        N  0.55141717  0.89626044  0.26669622    -0.42800
N360        N  0.40805373  0.73809025  0.23346171    -0.42800
C361        C  0.80828060  0.89238314  0.23161782     0.00800
C362        C  0.83284789  0.89520851  0.20127484    -0.11100
C363        C  0.85249031  0.92300879  0.19121655     0.03100
C364        C  0.84895590  0.94845471  0.21200364     0.00700
C365        C  0.82836265  0.94491061  0.24320309    -0.11000
C366        C  0.80836758  0.91728833  0.25319273     0.02900
H367        H  0.83324678  0.87624355  0.18447798     0.15900
H368        H  0.82346447  0.96428889  0.25893039     0.15900
C369        C  0.78665055  0.91539415  0.28541784     0.37600
C370        C  0.87277907  0.92533644  0.15870324     0.37500
N371        N  0.76938740  0.91384098  0.31127202    -0.42800
N372        N  0.88857107  0.92731042  0.13255267    -0.42800
C373        C  0.73101842  0.77042778  0.34100063     0.00800
C374        C  0.71858770  0.78712192  0.36925855    -0.11100
C375        C  0.71735969  0.77382960  0.39965581     0.03100
C376        C  0.72878096  0.74296936  0.40243466     0.00700
C377        C  0.74189801  0.72639775  0.37423779    -0.11000
C378        C  0.74285466  0.73964130  0.34385394     0.02900
H379        H  0.70939183  0.81076675  0.36765013     0.15900
H380        H  0.75069428  0.70269773  0.37577011     0.15900
C381        C  0.75392412  0.72062301  0.31602241     0.37600
C382        C  0.70495773  0.79264921  0.42745392     0.37500
N383        N  0.76255191  0.70530434  0.29373276    -0.42800
N384        N  0.69502203  0.80779354  0.44968541    -0.42800
C385        C  0.70764780  0.76701579  0.15276404     0.00800
C386        C  0.73621298  0.74020862  0.14856021    -0.11100
C387        C  0.73775950  0.72481075  0.11875762     0.03100
C388        C  0.71138249  0.73658973  0.09164304     0.00700
C389        C  0.68140858  0.76292391  0.09606206    -0.11000
C390        C  0.67855769  0.77785836  0.12618830     0.02900
H391        H  0.75762309  0.73106033  0.16873925     0.15900
H392        H  0.65996955  0.77199430  0.07585589     0.15900
C393        C  0.64468647  0.80392326  0.12887665     0.37600
C394        C  0.76676557  0.69690861  0.11718640     0.37500
N395        N  0.61703239  0.82460193  0.13093174    -0.42800
N396        N  0.78973616  0.67445172  0.11621019    -0.42800
O397        O  0.73374690  0.86613992  0.75416195    -0.56800
C398        C  0.59459641  0.81735823  0.74940314     0.75800
O399        O  0.73608604  0.77292317  0.70830723    -0.58000
C400        C  0.77696140  0.86492696  0.73837221     0.75800
C401        C  0.72741914  0.78532746  0.80915865     0.78200
Cd402      Cd  0.70862775  0.81306623  0.74726617     1.37500
O403        O  0.62346155  0.84063890  0.75162912    -0.56800
O404        O  0.70355972  0.81001364  0.80649677    -0.55600
C405        C  0.70905871  0.78272442  0.68494025     0.78100
O406        O  0.74626480  0.77410595  0.78316381    -0.58000
O407        O  0.61906952  0.79270966  0.74643085    -0.56500
O408        O  0.79019384  0.83932944  0.72740386    -0.56500
O409        O  0.68351060  0.80667061  0.69059316    -0.55600
O410        O  0.65107918  0.66982225  0.97866886    -0.56800
C411        C  0.84942232  0.69266532  0.49442095     0.75800
O412        O  0.70798572  0.73842626  0.95953495    -0.58000
C413        C  0.66628110  0.64426575  0.98745697     0.75800
C414        C  0.71614390  0.72272332  0.55860514     0.78200
Cd415      Cd  0.73480204  0.69651221  0.99463004     1.37500
O416        O  0.82102817  0.66914406  0.49397688    -0.56800
O417        O  0.74177979  0.69881690  0.55342588    -0.55600
C418        C  0.72872403  0.72735992  0.93394706     0.78100
O419        O  0.69616785  0.73444971  0.53383946    -0.58000
O420        O  0.82454733  0.71725993  0.49509704    -0.56500
O421        O  0.71191939  0.64313683  0.00010750    -0.56500
O422        O  0.75006783  0.70186381  0.93654951    -0.55600
N423        N  0.87376283  0.00329658  0.71684328    -0.02500
C424        C  0.85425618  0.97938706  0.69969435     0.00100
C425        C  0.82293153  0.98905756  0.67465715    -0.22800
C426        C  0.82309990  0.01975061  0.67631357    -0.23000
C427        C  0.85429728  0.02798235  0.70236698     0.00000
H428        H  0.79808518  0.97532464  0.65901368     0.13800
H429        H  0.79836121  0.03437409  0.66229738     0.13800
N430        N  0.57355625  0.50493612  0.46648288    -0.02500
C431        C  0.59587439  0.48018989  0.45239474     0.00100
C432        C  0.62677310  0.48825965  0.42629158    -0.22800
C433        C  0.62409074  0.51889058  0.42450276    -0.23000
C434        C  0.59153162  0.52866102  0.44957290     0.00000
H435        H  0.65313488  0.47379539  0.41232289     0.13800
H436        H  0.64800355  0.53269604  0.40887492     0.13800
O437        O  0.82578319  0.34073623  0.50155170    -0.56800
C438        C  0.67741703  0.36667040  0.49295076     0.75800
O439        O  0.69673825  0.27472260  0.96428537    -0.58000
C440        C  0.85547601  0.31780921  0.50054117     0.75800
C441        C  0.71930342  0.28432684  0.56458003     0.78200
Cd442      Cd  0.74040663  0.31210815  0.50203297     1.37500
O443        O  0.66251767  0.34123528  0.48248052    -0.56800
O444        O  0.74472531  0.30856749  0.56172370    -0.55600
C445        C  0.72930841  0.27836539  0.94117642     0.78100
O446        O  0.70120008  0.27321202  0.53851872    -0.58000
O447        O  0.72019222  0.36675047  0.50891282    -0.56500
O448        O  0.83191623  0.29272080  0.50069156    -0.56500
O449        O  0.76603312  0.29724687  0.94652598    -0.55600
O450        O  0.71882968  0.13912931  0.75292707    -0.56800
C451        C  0.58481725  0.19242116  0.75174345     0.75800
O452        O  0.74208039  0.22905814  0.78968667    -0.58000
C453        C  0.76678265  0.14025217  0.74341970     0.75800
C454        C  0.70837362  0.22521001  0.68909604     0.78200
Cd455      Cd  0.69953447  0.19351337  0.74983756     1.37500
O456        O  0.61097934  0.16853117  0.74622567    -0.56800
O457        O  0.68343395  0.20070662  0.69165133    -0.55600
C458        C  0.71753133  0.21939202  0.81420388     0.78100
O459        O  0.73050252  0.23495687  0.71469529    -0.58000
O460        O  0.61190240  0.21611170  0.75570561    -0.56500
O461        O  0.78443656  0.16609573  0.73732740    -0.56500
O462        O  0.68697431  0.19730744  0.80901869    -0.55600
O463        O  0.33664122  0.83912960  0.76267882    -0.56800
C464        C  0.18479961  0.86909966  0.76238125     0.75800
O465        O  0.21617703  0.77265608  0.72092491    -0.58000
C466        C  0.36311401  0.81604967  0.75436563     0.75800
C467        C  0.23464932  0.78432619  0.81948774     0.78200
Cd468      Cd  0.24820834  0.81422562  0.75780742     1.37500
O469        O  0.23142845  0.86838050  0.75063795    -0.56800
O470        O  0.26695421  0.80580032  0.81574260    -0.55600
C471        C  0.22661008  0.78592232  0.69488714     0.78100
O472        O  0.20803997  0.77680380  0.79467956    -0.58000
O473        O  0.16664289  0.84416157  0.77140668    -0.56500
O474        O  0.33610058  0.79277965  0.74804221    -0.56500
O475        O  0.24379379  0.81240497  0.69830318    -0.55600
O476        O  0.10870088  0.66864382  0.50865082    -0.56800
C477        C  0.26578376  0.64413212  0.50866221     0.75800
O478        O  0.23058346  0.73731656  0.97084841    -0.58000
C479        C  0.08032873  0.69132983  0.50288390     0.75800
C480        C  0.20656831  0.72521336  0.56891326     0.78200
Cd481      Cd  0.19537589  0.69605572  0.50536610     1.37500
O482        O  0.22082331  0.64237029  0.49506141    -0.56800
O483        O  0.18192034  0.70070567  0.56467896    -0.55600
C484        C  0.21642001  0.72560572  0.94411047     0.78100
O485        O  0.22609446  0.73653780  0.54362768    -0.58000
O486        O  0.27900628  0.66993278  0.51900149    -0.56500
O487        O  0.10536210  0.71561049  0.49906683    -0.56500
O488        O  0.19536279  0.69992317  0.94577674    -0.55600
N489        N  0.37706382  0.51004866  0.53687804    -0.02500
C490        C  0.35756597  0.48682928  0.55393668     0.00100
C491        C  0.32862529  0.49739957  0.58021115    -0.22800
C492        C  0.32932932  0.52808360  0.57887066    -0.23000
C493        C  0.35867796  0.53537912  0.55180534     0.00000
H494        H  0.30396868  0.48428287  0.59611752     0.13800
H495        H  0.30538404  0.54320357  0.59364261     0.13800
O496        O  0.11425361  0.34637519  0.51098599    -0.56800
C497        C  0.26676359  0.37433850  0.01342965     0.75800
O498        O  0.23603391  0.28022107  0.54253885    -0.58000
C499        C  0.08663650  0.32314477  0.50494432     0.75800
C500        C  0.22044953  0.29300148  0.94321362     0.78200
Cd501      Cd  0.20165223  0.32037234  0.00687274     1.37500
O502        O  0.22035944  0.37480676  0.00175341    -0.56800
O503        O  0.19443609  0.31690087  0.94779728    -0.55600
C504        C  0.21197449  0.28934819  0.56787384     0.78100
O505        O  0.24181489  0.28233047  0.96811533    -0.58000
O506        O  0.28400527  0.34882928  0.02092574    -0.56500
O507        O  0.11243147  0.29906644  0.50049910    -0.56500
O508        O  0.18409909  0.31268508  0.56479666    -0.55600
O509        O  0.32436660  0.17342486  0.75198263    -0.56800
C510        C  0.17342082  0.14798209  0.75946747     0.75800
O511        O  0.20447888  0.23967318  0.79396966    -0.58000
C512        C  0.35404938  0.19641569  0.75208209     0.75800
C513        C  0.22087295  0.23061122  0.69249830     0.78200
Cd514      Cd  0.23982625  0.20170196  0.75409497     1.37500
O515        O  0.21782810  0.14792704  0.74495681    -0.56800
O516        O  0.24429370  0.20576882  0.69486250    -0.55600
C517        C  0.23422612  0.23212922  0.81710425     0.78100
O518        O  0.20318667  0.24185474  0.71875970    -0.58000
O519        O  0.15849360  0.17311355  0.77091904    -0.56500
O520        O  0.33078065  0.22154104  0.75300349    -0.56500
O521        O  0.26533111  0.21045852  0.81102864    -0.55600
N522        N  0.07723665  0.00852226  0.77822847    -0.02500
C523        C  0.09248581  0.03340529  0.79540111     0.00100
C524        C  0.12096435  0.02541881  0.82231568    -0.22800
C525        C  0.12403310  0.99479162  0.82165950    -0.23000
C526        C  0.09733562  0.98495053  0.79441506     0.00000
H527        H  0.14243961  0.04032442  0.83858298     0.13800
H528        H  0.14830797  0.98136830  0.83726115     0.13800
C529        C  0.14233364  0.11990400  0.76439013     0.00800
C530        C  0.11047854  0.11755978  0.79224296    -0.11100
C531        C  0.08915133  0.08986334  0.80136366     0.03100
C532        C  0.09817721  0.06392157  0.78201176     0.00700
C533        C  0.12545410  0.06687275  0.75262044    -0.11000
C534        C  0.14786972  0.09436523  0.74380485     0.02900
H535        H  0.10529058  0.13693340  0.80817607     0.15900
H536        H  0.13343645  0.04712537  0.73780343     0.15900
C537        C  0.17808820  0.09529525  0.71410541     0.37600
C538        C  0.06097428  0.08821680  0.83173230     0.37500
N539        N  0.20236990  0.09587937  0.69031253    -0.42800
N540        N  0.03868197  0.08685932  0.85616836    -0.42800
C541        C  0.23238697  0.24774252  0.84946825     0.00800
C542        C  0.19167994  0.26863891  0.85584374    -0.11100
C543        C  0.18719877  0.28358484  0.88587020     0.03100
C544        C  0.22447831  0.27813072  0.91062066     0.00700
C545        C  0.26528951  0.25730190  0.90432233    -0.11000
C546        C  0.26969738  0.24224500  0.87427176     0.02900
H547        H  0.16240164  0.27304459  0.83741598     0.15900
H548        H  0.29413778  0.25277723  0.92296342     0.15900
C549        C  0.31335918  0.22152728  0.86981730     0.37600
C550        C  0.14226764  0.30334972  0.89085062     0.37500
N551        N  0.34846919  0.20496638  0.86644797    -0.42800
N552        N  0.10608466  0.31905060  0.89484482    -0.42800
C553        C  0.21663784  0.24564077  0.66069293     0.00800
C554        C  0.24849743  0.23503843  0.63481845    -0.11100
C555        C  0.24832678  0.24881364  0.60467647     0.03100
C556        C  0.21508332  0.27381923  0.59949909     0.00700
C557        C  0.18305303  0.28433038  0.62536773    -0.11000
C558        C  0.18354613  0.27066444  0.65558135     0.02900
H559        H  0.27463103  0.21607295  0.63823467     0.15900
H560        H  0.15706964  0.30337074  0.62203843     0.15900
C561        C  0.14892061  0.28266996  0.68056979     0.37600
C562        C  0.28362951  0.23692801  0.57995775     0.37500
N563        N  0.12103628  0.29237309  0.70049911    -0.42800
N564        N  0.31223742  0.22727047  0.56038255    -0.42800
C565        C  0.34673976  0.45673508  0.53972611     0.00800
C566        C  0.31660310  0.45510888  0.01134882    -0.11100
C567        C  0.29136328  0.42838904  0.00163579     0.03100
C568        C  0.29798326  0.40219049  0.01980140     0.00700
C569        C  0.33184057  0.40336219  0.54673815    -0.11000
C570        C  0.35511585  0.43044952  0.55719186     0.05100
H571        H  0.30920155  0.47538305  0.99811982     0.15900
H572        H  0.33729042  0.38351735  0.56098337     0.15900
C573        C  0.38505881  0.43110688  0.58682298     0.37600
C574        C  0.25733963  0.42900224  0.97370280     0.37500
N575        N  0.40878571  0.43163048  0.61067938    -0.42800
N576        N  0.22988897  0.42989367  0.95141254    -0.42800
C577        C  0.29948884  0.61734024  0.51460745     0.00800
C578        C  0.33251846  0.61788917  0.54190472    -0.11100
C579        C  0.35702821  0.59176532  0.55263416     0.03100
C580        C  0.34963706  0.56436343  0.53572515     0.00700
C581        C  0.32089593  0.56429489  0.00671438    -0.11000
C582        C  0.29588033  0.59043114  0.99604563     0.02900
H583        H  0.33651389  0.63838112  0.55622098     0.15900
H584        H  0.31444033  0.54331948  0.99364751     0.15900
C585        C  0.26616800  0.58879335  0.96633848     0.37600
C586        C  0.38714345  0.59323773  0.58217617     0.37500
N587        N  0.24277390  0.58736521  0.94237406    -0.42800
N588        N  0.41122675  0.59441820  0.60588384    -0.42800
C589        C  0.11023198  0.95534247  0.77953370     0.00800
C590        C  0.08621142  0.92953183  0.79170134    -0.11100
C591        C  0.10770449  0.90094452  0.78509649     0.03100
C592        C  0.15471161  0.89789806  0.76612637     0.00700
C593        C  0.17652260  0.92378764  0.75243180    -0.11000
C594        C  0.15518564  0.95222234  0.75919140     0.02900
H595        H  0.05237826  0.93187297  0.80792898     0.15900
H596        H  0.21227387  0.92209572  0.73772366     0.15900
C597        C  0.18360477  0.97811484  0.74772953     0.37600
C598        C  0.08236979  0.87557574  0.79983441     0.37500
N599        N  0.20674792  0.99882539  0.73881104    -0.42800
N600        N  0.06192255  0.85531581  0.81173761    -0.42800
C601        C  0.21169739  0.74014627  0.60147104     0.00800
C602        C  0.22670479  0.77047394  0.60334073    -0.11100
C603        C  0.23112143  0.78590006  0.63310549     0.03100
C604        C  0.22047199  0.77100148  0.66235533     0.00700
C605        C  0.20583470  0.74058137  0.66048826    -0.11000
C606        C  0.20159699  0.72513556  0.63068661     0.02900
H607        H  0.23467201  0.78242088  0.58131962     0.15900
H608        H  0.19829051  0.72854548  0.68249984     0.15900
C609        C  0.18850518  0.69363706  0.63118829     0.37600
C610        C  0.24664987  0.81704983  0.63249576     0.37500
N611        N  0.17821993  0.66837143  0.63185228    -0.42800
N612        N  0.25913571  0.84200330  0.63183894    -0.42800
C613        C  0.22903209  0.76904805  0.85123600     0.00800
C614        C  0.25878691  0.77976508  0.87782717    -0.11100
C615        C  0.25540174  0.76631452  0.90815568     0.03100
C616        C  0.22236479  0.74098541  0.91249957     0.00700
C617        C  0.19264347  0.73027426  0.88594272    -0.11000
C618        C  0.19516606  0.74406626  0.85581599     0.02900
H619        H  0.28479068  0.79896087  0.87506433     0.15900
H620        H  0.16640296  0.71118495  0.88879069     0.15900
C621        C  0.16186776  0.73209700  0.83032512     0.37600
C622        C  0.28663590  0.77903618  0.93419622     0.37500
N623        N  0.13492031  0.72256495  0.80998444    -0.42800
N624        N  0.31152362  0.78937546  0.95506417    -0.42800
C625        C  0.52569003  0.19293319  0.75306449     0.00800
C626        C  0.49672104  0.17037328  0.73671420    -0.11100
C627        C  0.44084870  0.17090221  0.73606096     0.03100
C628        C  0.41291812  0.19441805  0.75195463     0.00700
C629        C  0.44180636  0.21675894  0.76854831    -0.11000
C630        C  0.49745882  0.21602646  0.76965299     0.02900
H631        H  0.51777298  0.15257439  0.72382720     0.15900
H632        H  0.42070383  0.23457490  0.78140531     0.15900
C633        C  0.52410656  0.23852007  0.78931404     0.37600
C634        C  0.41339527  0.14779326  0.71775304     0.37500
N635        N  0.54527653  0.25639891  0.80533107    -0.42800
N636        N  0.39136623  0.12931869  0.70301730    -0.42800
C637        C  0.91457468  0.32006736  0.49966288     0.00800
C638        C  0.93976989  0.34523252  0.51376235    -0.11100
C639        C  0.99558480  0.34720762  0.51535094     0.03100
C640        C  0.02742848  0.32350740  0.50277204     0.00700
C641        C  0.00203933  0.29893938  0.98760727    -0.11000
C642        C  0.94649515  0.29716638  0.98565788     0.02900
H643        H  0.91577404  0.36314939  0.52427013     0.15900
H644        H  0.02571587  0.28097469  0.97690814     0.15900
C645        C  0.92358877  0.27211864  0.96794075     0.37600
C646        C  0.01868475  0.37344479  0.53074764     0.37500
N647        N  0.90536629  0.25217483  0.95348394    -0.42800
N648        N  0.03711899  0.39453679  0.54301895    -0.42800
C649        C  0.71332556  0.26969684  0.59661142     0.00800
C650        C  0.74388368  0.28064341  0.62271612    -0.11100
C651        C  0.74300160  0.26683159  0.65284467     0.03100
C652        C  0.71065815  0.24129972  0.65774119     0.00700
C653        C  0.67918646  0.23072748  0.63183787    -0.11000
C654        C  0.68009813  0.24455183  0.60167819     0.02900
H655        H  0.76971269  0.29985848  0.61947251     0.15900
H656        H  0.65351171  0.21144693  0.63506808     0.15900
C657        C  0.64596370  0.23246740  0.57666318     0.37600
C658        C  0.77686912  0.27912801  0.67787141     0.37500
N659        N  0.61839771  0.22269849  0.55675905    -0.42800
N660        N  0.80417573  0.28903846  0.69782728    -0.42800
C661        C  0.72571352  0.26187554  0.90938957     0.00800
C662        C  0.76838856  0.26445829  0.88739423    -0.11100
C663        C  0.76718151  0.25053221  0.85672442     0.03100
C664        C  0.72238152  0.23345926  0.84709384     0.00700
C665        C  0.68015591  0.23022407  0.86926906    -0.11000
C666        C  0.68130004  0.24415871  0.90002168     0.02900
H667        H  0.80327143  0.27747147  0.89413689     0.15900
H668        H  0.64538416  0.21719555  0.86232703     0.15900
C669        C  0.63572382  0.24023368  0.92092613     0.37600
C670        C  0.81332202  0.25349775  0.83610572     0.37500
N671        N  0.59898663  0.23692046  0.93747697    -0.42800
N672        N  0.85052238  0.25582447  0.81973267    -0.42800
C673        C  0.52392865  0.50514652  0.48425498     0.00800
C674        C  0.52367730  0.50287643  0.51786124    -0.11100
C675        C  0.47559697  0.50450767  0.53531871     0.03100
C676        C  0.42665050  0.50841322  0.51910606     0.00700
C677        C  0.42689205  0.51027006  0.98547239    -0.11000
C678        C  0.47496066  0.50864309  0.96804263     0.02900
H679        H  0.56102798  0.50023003  0.53043648     0.15900
H680        H  0.38955057  0.51281898  0.97286647     0.15900
C681        C  0.47340753  0.51034424  0.93336165     0.37600
C682        C  0.47723430  0.50239669  0.56997419     0.37500
N683        N  0.47247951  0.51166717  0.90552603    -0.42800
N684        N  0.47843475  0.50064383  0.59777073    -0.42800
C685        C  0.64804019  0.39499063  0.48608576     0.00800
C686        C  0.66300249  0.42160369  0.50249887    -0.11100
C687        C  0.64251700  0.44950143  0.49374966     0.03100
C688        C  0.60529956  0.45129016  0.46845625     0.00700
C689        C  0.58819371  0.42473020  0.95309251    -0.11000
C690        C  0.60892142  0.39677277  0.96162059     0.02900
H691        H  0.69295478  0.42087570  0.52120465     0.15900
H692        H  0.56092388  0.42603054  0.93296994     0.15900
C693        C  0.59209528  0.37076025  0.94303626     0.37600
C694        C  0.66466688  0.47619913  0.50877868     0.37500
N695        N  0.57870857  0.34997196  0.92798616    -0.42800
N696        N  0.68291750  0.49752940  0.52064696    -0.42800
C697        C  0.02644777  0.00666952  0.76212467     0.00800
C698        C  0.97967804  0.00701043  0.78096143    -0.11100
C699        C  0.92915340  0.00537956  0.76674175     0.03100
C700        C  0.92467475  0.00322981  0.73291849     0.00700
C701        C  0.97150415  0.00247385  0.71406759    -0.11000
C702        C  0.02210175  0.00412667  0.72834968     0.02900
H703        H  0.98295331  0.00868201  0.80701862     0.15900
H704        H  0.96823484  0.00097808  0.68800562     0.15900
C705        C  0.06863088  0.00357272  0.70786464     0.37600
C706        C  0.88296389  0.00586381  0.78749843     0.37500
N707        N  0.10545774  0.00323612  0.69094655    -0.42800
N708        N  0.84647610  0.00600106  0.80469383    -0.42800
C709        C  0.79931287  0.11265766  0.73813458     0.00800
C710        C  0.83709140  0.11165349  0.71290062    -0.11100
C711        C  0.86046431  0.08439355  0.70282636     0.03100
C712        C  0.84691637  0.05767307  0.71846073     0.00700
C713        C  0.81324298  0.05919009  0.74552723    -0.11000
C714        C  0.78969120  0.08628350  0.75555611     0.02900
H715        H  0.84565387  0.13175571  0.69957478     0.15900
H716        H  0.80149712  0.03869557  0.75718337     0.15900
C717        C  0.75460136  0.08609694  0.78325112     0.37600
C718        C  0.89584999  0.08395811  0.67524773     0.37500
N719        N  0.72668656  0.08582588  0.80555227    -0.42800
N720        N  0.92431265  0.08353547  0.65318467    -0.42800
C721        C  0.90853235  0.69167346  0.49477789     0.00800
C722        C  0.93427025  0.66639786  0.50691053    -0.11100
C723        C  0.98997297  0.66542513  0.50970095     0.03100
C724        C  0.02120022  0.69018655  0.50013575     0.00700
C725        C  0.99527404  0.71506048  0.98719768    -0.11000
C726        C  0.93986550  0.71596600  0.98425978     0.02900
H727        H  0.91072775  0.64755939  0.51498037     0.15900
H728        H  0.01842542  0.73401185  0.97902798     0.15900
C729        C  0.91668492  0.74183176  0.96939934     0.37600
C730        C  0.01341619  0.63901751  0.52317242     0.37500
N731        N  0.89829448  0.76252078  0.95735627    -0.42800
N732        N  0.03187982  0.61775503  0.53398909    -0.42800
C733        C  0.63426997  0.61674269  0.98154515     0.00800
C734        C  0.60852029  0.61287732  0.95174635    -0.11100
C735        C  0.58907032  0.58466425  0.94185507     0.03100
C736        C  0.59393964  0.55997201  0.46234060     0.00700
C737        C  0.61368993  0.56479358  0.49362383    -0.11000
C738        C  0.63451936  0.59273099  0.50318575     0.02900
H739        H  0.60733729  0.63127384  0.93510359     0.15900
H740        H  0.61726893  0.54607924  0.50967413     0.15900
C741        C  0.65786791  0.59578817  0.53483654     0.37600
C742        C  0.56693573  0.58118507  0.90992705     0.37500
N743        N  0.67660250  0.59813480  0.56020899    -0.42800
N744        N  0.54928194  0.57840347  0.88430899    -0.42800
C745        C  0.53539969  0.81818380  0.75008982     0.00800
C746        C  0.50774884  0.79122817  0.74428551    -0.11100
C747        C  0.45215990  0.78997793  0.74514622     0.03100
C748        C  0.42234862  0.81623365  0.75226185     0.00700
C749        C  0.44993592  0.84333446  0.75764050    -0.11000
C750        C  0.50576265  0.84458585  0.75648877     0.02900
H751        H  0.52964353  0.77076465  0.73899626     0.15900
H752        H  0.42785689  0.86373966  0.76284988     0.15900
C753        C  0.53113410  0.87325357  0.76219325     0.37600
C754        C  0.42748946  0.76120676  0.73871012     0.37500
N755        N  0.55141724  0.89626035  0.76669623    -0.42800
N756        N  0.40805390  0.73809031  0.73346050    -0.42800
C757        C  0.80828061  0.89238300  0.73161766     0.00800
C758        C  0.83284761  0.89520828  0.70127467    -0.11100
C759        C  0.85249001  0.92300855  0.69121630     0.03100
C760        C  0.84895576  0.94845460  0.71200346     0.00700
C761        C  0.82836251  0.94491062  0.74320288    -0.11000
C762        C  0.80836752  0.91728836  0.75319257     0.02900
H763        H  0.83324602  0.87624302  0.68447765     0.15900
H764        H  0.82346368  0.96428936  0.75893018     0.15900
C765        C  0.78665062  0.91539413  0.78541767     0.37600
C766        C  0.87277877  0.92533630  0.65870298     0.37500
N767        N  0.76938749  0.91384099  0.81127185    -0.42800
N768        N  0.88857081  0.92731020  0.63255240    -0.42800
C769        C  0.73101852  0.77042775  0.84100065     0.00800
C770        C  0.71858737  0.78712188  0.86925856    -0.11100
C771        C  0.71735965  0.77382952  0.89965584     0.03100
C772        C  0.72878108  0.74296931  0.90243476     0.00700
C773        C  0.74189841  0.72639775  0.87423797    -0.11000
C774        C  0.74285479  0.73964125  0.84385403     0.02900
H775        H  0.70939197  0.81076665  0.86765026     0.15900
H776        H  0.75069543  0.70269785  0.87577039     0.15900
C777        C  0.75392485  0.72062293  0.81602255     0.37600
C778        C  0.70495748  0.79264916  0.92745388     0.37500
N779        N  0.76255278  0.70530431  0.79373285    -0.42800
N780        N  0.69502174  0.80779351  0.94968533    -0.42800
C781        C  0.70764758  0.76701564  0.65276390     0.00800
C782        C  0.73621281  0.74020852  0.64856007    -0.11100
C783        C  0.73775916  0.72481063  0.61875748     0.03100
C784        C  0.71138225  0.73658969  0.59164283     0.00700
C785        C  0.68140812  0.76292382  0.59606190    -0.11000
C786        C  0.67855726  0.77785821  0.62618821     0.02900
H787        H  0.75762235  0.73106013  0.66873922     0.15900
H788        H  0.65996909  0.77199450  0.57585573     0.15900
C789        C  0.64468618  0.80392320  0.62887683     0.37600
C790        C  0.76676526  0.69690850  0.61718624     0.37500
N791        N  0.61703182  0.82460177  0.63093195    -0.42800
N792        N  0.78973582  0.67445163  0.61620994    -0.42800
loop_ 
_geom_bond_atom_site_label_1 
_geom_bond_atom_site_label_2 
_geom_bond_distance 
_geom_bond_site_symmetry_2 
_ccdc_geom_bond_type 
O1            C4   1.265       .  A
O1           Cd6   2.462       .  S
C2           O11   1.265       .  A
C2            O7   1.268       .  A
C2          C349   1.487       .  S
O3            C9   1.272       .  A
O3           Cd6   2.482       .  S
C4           O12   1.265       .  A
C4          C361   1.486       .  S
C5           O10   1.268       .  A
C5            O8   1.263       .  A
C5          C373   1.494       .  S
Cd6          O13   2.447       .  S
Cd6          O12   2.502       .  S
Cd6          O11   2.423       .  S
Cd6           O7   2.473       .  S
Cd6          O10   2.503       .  S
Cd6           O8   2.465       .  S
C9           O13   1.265       .  A
C9          C385   1.494       .  S
O14          C17   1.265       .  A
O14         Cd19   2.499       .  S
C15          O24   1.264       .  A
C15          O20   1.268       .  A
C15         C325   1.485       .  S
O16          C22   1.270       .  A
O16         Cd19   2.491       .  S
C17          O25   1.264       .  A
C17         C337   1.483       .  S
C18          O23   1.269       .  A
C18          O21   1.261       .  A
C18         C388   1.495       .  S
Cd19         O26   2.453       .  S
Cd19         O25   2.465       .  S
Cd19        O420   2.434       .  S
Cd19        O416   2.488       .  S
Cd19        O419   2.514       .  S
Cd19        O417   2.445       .  S
O20        Cd415   2.488       .  S
O21        Cd415   2.445   1_554  S
C22          O26   1.266       .  A
C22         C376   1.494       .  S
O23        Cd415   2.514   1_554  S
O24        Cd415   2.434       .  S
N27          C31   1.359       .  A
N27          C28   1.361   1_545  A
N27         C304   1.445       .  S
C28         C364   1.488       .  S
C28          C29   1.383       .  A
C29          C30   1.370   1_565  A
C29          H32   1.082       .  S
C30          C31   1.381       .  A
C30          H33   1.082       .  S
C31         C316   1.482       .  S
N34          C38   1.358       .  A
N34          C35   1.359       .  A
N34         C277   1.444       .  S
C35         C292   1.485       .  S
C35          C36   1.382       .  A
C36          C37   1.373       .  A
C36          H39   1.082       .  S
C37          C38   1.382       .  A
C37          H40   1.082       .  S
C38         C340   1.485       .  S
O41          C44   1.267       .  A
O41         Cd46   2.493       .  S
C42          O51   1.265   1_556  A
C42          O47   1.263       .  A
C42         C289   1.498       .  S
O43          C49   1.269       .  A
O43        Cd442   2.517       .  S
C44          O52   1.266       .  A
C44         C241   1.487   1_554  S
C45          O50   1.266       .  A
C45          O48   1.263       .  A
C45         C253   1.499       .  S
Cd46         O52   2.457       .  S
Cd46         O51   2.502       .  S
Cd46         O47   2.499   1_554  S
Cd46         O50   2.522       .  S
Cd46         O48   2.486       .  S
Cd46        O439   2.517   1_554  S
Cd46        O449   2.463   1_554  S
C49          O53   1.265       .  A
C49         C265   1.499       .  S
O53        Cd442   2.463       .  S
O54          C57   1.266       .  A
O54         Cd59   2.483       .  S
C55          O64   1.264       .  A
C55          O60   1.270       .  A
C55         C229   1.485       .  S
O56          C62   1.269       .  A
O56         Cd59   2.507       .  S
C57          O65   1.265       .  A
C57         C313   1.491       .  S
C58          O63   1.269       .  A
C58          O61   1.265       .  A
C58         C256   1.499       .  S
Cd59         O66   2.474       .  S
Cd59         O65   2.506       .  S
Cd59         O64   2.431       .  S
Cd59         O60   2.489       .  S
Cd59         O63   2.500       .  S
Cd59         O61   2.476       .  S
C62          O66   1.263       .  A
C62         C268   1.494       .  S
O67          C70   1.268       .  A
O67         Cd72   2.488       .  S
C68          O77   1.265       .  A
C68          O73   1.265       .  A
C68         C196   1.497       .  S
O69          C75   1.268       .  A
O69         Cd72   2.513       .  S
C70          O78   1.263       .  A
C70         C352   1.489       .  S
C71          O76   1.268       .  A
C71          O74   1.266       .  A
C71         C217   1.501       .  S
Cd72         O79   2.470       .  S
Cd72         O78   2.435       .  S
Cd72         O77   2.502       .  S
Cd72         O73   2.479       .  S
Cd72         O76   2.496       .  S
Cd72         O74   2.487       .  S
C75          O79   1.263       .  A
C75         C208   1.500       .  S
O80          C83   1.267       .  A
O80         Cd85   2.499       .  S
C81          O90   1.265       .  A
C81          O86   1.266   1_554  A
C81         C181   1.492       .  S
O82          C88   1.268       .  A
O82        Cd481   2.513       .  S
C83          O91   1.264   1_554  A
C83         C328   1.490       .  S
C84          O89   1.269       .  A
C84          O87   1.265       .  A
C84         C205   1.498       .  S
Cd85         O91   2.442   1_554  S
Cd85         O90   2.478       .  S
Cd85         O86   2.509   1_554  S
Cd85         O89   2.502       .  S
Cd85         O87   2.484       .  S
Cd85        O478   2.513   1_554  S
Cd85        O488   2.480   1_554  S
C88          O92   1.265       .  A
C88         C220   1.499       .  S
O92        Cd481   2.480       .  S
N93          C97   1.358       .  A
N93          C94   1.356       .  A
N93         C280   1.444       .  S
C94         C169   1.480       .  S
C94          C95   1.381       .  A
C95          C96   1.372       .  A
C95          H98   1.082       .  S
C96          C97   1.383       .  A
C96          H99   1.082       .  S
C97         C184   1.487       .  S
O100        C103   1.268       .  A
O100       Cd501   2.488       .  S
C101        O110   1.265       .  A
C101        O106   1.264       .  A
C101        C172   1.488       .  S
O102        C108   1.269       .  A
O102       Cd501   2.506       .  S
C103        O111   1.266       .  A
C103        C244   1.490       .  S
C104        O109   1.268       .  A
C104        O107   1.262       .  A
C104        C148   1.496       .  S
Cd105       O110   2.490       .  S
Cd105       O106   2.487       .  S
Cd105       O109   2.520       .  S
Cd105       O107   2.458       .  S
Cd105       O496   2.488       .  S
Cd105       O498   2.506       .  S
Cd105       O508   2.470       .  S
Cd105       O507   2.445       .  S
C108        O112   1.265       .  A
C108        C160   1.499       .  S
O111       Cd501   2.445       .  S
O112       Cd501   2.470       .  S
O113        C116   1.267       .  A
O113       Cd118   2.472       .  S
C114        O123   1.265       .  A
C114        O119   1.264       .  A
C114        C133   1.492       .  S
O115        C121   1.270       .  A
O115       Cd118   2.502       .  S
C116        O124   1.265       .  A
C116        C232   1.481       .  S
C117        O122   1.267       .  A
C117        O120   1.262       .  A
C117        C157   1.497       .  S
Cd118       O125   2.472       .  S
Cd118       O124   2.448       .  S
Cd118       O123   2.509       .  S
Cd118       O119   2.484       .  S
Cd118       O122   2.518       .  S
Cd118       O120   2.468       .  S
C121        O125   1.265       .  A
C121        C145   1.499       .  S
N126        C130   1.360   1_545  A
N126        C127   1.362       .  A
N126        C301   1.444       .  S
C127        C136   1.488       .  S
C127        C128   1.382       .  A
C128        C129   1.369   1_545  A
C128        H131   1.082       .  S
C129        C130   1.380       .  A
C129        H132   1.082       .  S
C130        C193   1.482       .  S
C133        C134   1.406       .  A
C133        C138   1.416       .  A
C134        C135   1.405       .  A
C134        H139   1.084       .  S
C135        C136   1.412       .  A
C135        C142   1.444       .  S
C136        C137   1.403       .  A
C137        C138   1.404       .  A
C137        H140   1.082       .  S
C138        C141   1.444       .  S
C141        N143   1.157       .  T
C142        N144   1.157       .  T
C145        C146   1.405       .  A
C145        C150   1.420       .  A
C146        C147   1.404       .  A
C146        H151   1.084       .  S
C147        C148   1.418       .  A
C147        C154   1.445       .  S
C148        C149   1.405       .  A
C149        C150   1.407       .  A
C149        H152   1.085       .  S
C150        C153   1.444       .  S
C153        N155   1.157       .  T
C154        N156   1.157       .  T
C157        C158   1.409       .  A
C157        C162   1.414       .  A
C158        C159   1.405       .  A
C158        H163   1.084       .  S
C159        C160   1.416       .  A
C159        C166   1.444       .  S
C160        C161   1.410       .  A
C161        C162   1.405       .  A
C161        H164   1.084       .  S
C162        C165   1.443       .  S
C165        N167   1.157       .  T
C166        N168   1.157       .  T
C169        C174   1.409       .  A
C169        C566   1.403       .  A
C170        C171   1.402       .  A
C170        C565   1.403       .  A
C170        H175   1.085       .  S
C171        C172   1.415       .  A
C171        C178   1.444       .  S
C172        C569   1.407       .  A
C173        C174   1.403       .  A
C173        C568   1.407       .  A
C173        H176   1.085       .  S
C174        C177   1.444       .  S
C177        N179   1.157       .  T
C178        N180   1.157       .  T
C181        C182   1.407       .  A
C181        C582   1.416   1_554  A
C182        C183   1.402       .  A
C182        H187   1.084       .  S
C183        C184   1.409       .  A
C183        C190   1.443       .  S
C184        C581   1.406       .  A
C185        C186   1.407       .  A
C185        C580   1.406       .  A
C185        H188   1.084       .  S
C186        C577   1.416       .  A
C186        C189   1.444       .  S
C189        N191   1.157       .  T
C190        N192   1.157       .  T
C193        C194   1.402       .  A
C193        C198   1.410       .  A
C194        C195   1.407       .  A
C194        H199   1.084       .  S
C195        C196   1.420       .  A
C195        C202   1.443       .  S
C196        C197   1.407       .  A
C197        C198   1.401       .  A
C197        H200   1.084       .  S
C198        C201   1.445       .  S
C201        N203   1.157       .  T
C202        N204   1.157       .  T
C205        C206   1.405       .  A
C205        C210   1.418       .  A
C206        C207   1.405       .  A
C206        H211   1.085       .  S
C207        C208   1.419       .  A
C207        C214   1.444       .  S
C208        C209   1.407       .  A
C209        C210   1.406       .  A
C209        H212   1.084       .  S
C210        C213   1.444       .  S
C213        N215   1.157       .  T
C214        N216   1.157       .  T
C217        C218   1.410       .  A
C217        C222   1.416       .  A
C218        C219   1.407       .  A
C218        H223   1.084       .  S
C219        C220   1.415       .  A
C219        C226   1.444       .  S
C220        C221   1.408       .  A
C221        C222   1.405       .  A
C221        H224   1.084       .  S
C222        C225   1.444       .  S
C225        N227   1.157       .  T
C226        N228   1.157       .  T
C229        C230   1.406       .  A
C229        C234   1.416       .  A
C230        C231   1.403       .  A
C230        H235   1.085       .  S
C231        C232   1.413       .  A
C231        C238   1.444       .  S
C232        C233   1.402       .  A
C233        C234   1.399       .  A
C233        H236   1.085       .  S
C234        C237   1.445       .  S
C237        N239   1.157       .  T
C238        N240   1.157       .  T
C241        C242   1.406   1_556  A
C241        C642   1.413       .  A
C242        C243   1.406       .  A
C242        H247   1.085       .  S
C243        C244   1.416   1_655  A
C243        C250   1.444   1_655  S
C244        C641   1.406   1_554  A
C245        C246   1.399   1_455  A
C245        C640   1.406       .  A
C245        H248   1.085       .  S
C246        C637   1.413       .  A
C246        C249   1.445       .  S
C249        N251   1.157       .  T
C250        N252   1.157       .  T
C253        C254   1.408       .  A
C253        C258   1.416       .  A
C254        C255   1.405       .  A
C254        H259   1.084       .  S
C255        C256   1.416       .  A
C255        C262   1.444       .  S
C256        C257   1.409       .  A
C257        C258   1.406       .  A
C257        H260   1.084       .  S
C258        C261   1.444       .  S
C261        N263   1.157       .  T
C262        N264   1.157       .  T
C265        C266   1.409       .  A
C265        C270   1.417       .  A
C266        C267   1.404       .  A
C266        H271   1.085       .  S
C267        C268   1.412       .  A
C267        C274   1.443       .  S
C268        C269   1.408       .  A
C269        C270   1.407       .  A
C269        H272   1.085       .  S
C270        C273   1.444       .  S
C273        N275   1.158       .  T
C274        N276   1.157       .  T
C277        C278   1.399   1_556  A
C277        C678   1.415       .  A
C278        C279   1.405       .  A
C278        H283   1.083       .  S
C279        C280   1.417       .  A
C279        C286   1.443       .  S
C280        C677   1.399   1_554  A
C281        C282   1.404       .  A
C281        C676   1.399       .  A
C281        H284   1.083       .  S
C282        C673   1.415       .  A
C282        C285   1.442       .  S
C285        N287   1.157       .  T
C286        N288   1.157       .  T
C289        C290   1.408   1_556  A
C289        C690   1.419       .  A
C290        C291   1.404   1_554  A
C290        H295   1.084       .  S
C291        C292   1.412       .  A
C291        C298   1.445   1_556  S
C292        C689   1.402       .  A
C293        C294   1.406       .  A
C293        C688   1.402       .  A
C293        H296   1.085       .  S
C294        C685   1.419       .  A
C294        C297   1.443       .  S
C297        N299   1.157       .  T
C298        N300   1.157       .  T
C301        C302   1.406   1_455  A
C301        C306   1.407       .  A
C302        C303   1.403       .  A
C302        H307   1.085       .  S
C303        C304   1.409       .  A
C303        C310   1.440       .  S
C304        C305   1.408       .  A
C305        C306   1.406   1_655  A
C305        H308   1.085       .  S
C306        C309   1.440       .  S
C309        N311   1.157       .  T
C310        N312   1.157       .  T
C313        C314   1.408       .  A
C313        C318   1.414       .  A
C314        C315   1.406       .  A
C314        H319   1.084       .  S
C315        C316   1.410       .  A
C315        C322   1.444       .  S
C316        C317   1.402       .  A
C317        C318   1.401       .  A
C317        H320   1.083       .  S
C318        C321   1.443       .  S
C321        N323   1.157       .  T
C322        N324   1.157       .  T
C325        C326   1.405   1_556  A
C325        C726   1.414       .  A
C326        C327   1.405       .  A
C326        H331   1.085       .  S
C327        C328   1.416   1_655  A
C327        C334   1.443   1_655  S
C328        C725   1.406   1_454  A
C329        C330   1.398       .  A
C329        C724   1.406   1_655  A
C329        H332   1.085   1_655  S
C330        C721   1.414       .  A
C330        C333   1.445       .  S
C333        N335   1.157       .  T
C334        N336   1.157       .  T
C337        C338   1.405       .  A
C337        C738   1.413       .  A
C338        C339   1.404       .  A
C338        H343   1.085       .  S
C339        C736   1.412       .  A
C339        C346   1.444       .  S
C340        C341   1.403       .  A
C340        C735   1.412       .  A
C341        C342   1.402   1_556  A
C341        H344   1.083   1_556  S
C342        C733   1.413   1_554  A
C342        C345   1.444       .  S
C345        N347   1.157       .  T
C346        N348   1.157       .  T
C349        C350   1.405       .  A
C349        C354   1.415       .  A
C350        C351   1.397       .  A
C350        H355   1.085       .  S
C351        C352   1.417       .  A
C351        C358   1.445       .  S
C352        C353   1.407       .  A
C353        C354   1.403       .  A
C353        H356   1.084       .  S
C354        C357   1.444       .  S
C357        N359   1.157       .  T
C358        N360   1.157       .  T
C361        C362   1.406       .  A
C361        C366   1.412       .  A
C362        C363   1.405       .  A
C362        H367   1.085       .  S
C363        C364   1.414       .  A
C363        C370   1.444       .  S
C364        C365   1.402       .  A
C365        C366   1.400       .  A
C365        H368   1.079       .  S
C366        C369   1.444       .  S
C369        N371   1.157       .  T
C370        N372   1.157       .  T
C373        C374   1.409       .  A
C373        C378   1.414       .  A
C374        C375   1.405       .  A
C374        H379   1.084       .  S
C375        C376   1.415       .  A
C375        C382   1.444       .  S
C376        C377   1.408       .  A
C377        C378   1.403       .  A
C377        H380   1.085       .  S
C378        C381   1.444       .  S
C381        N383   1.157       .  T
C382        N384   1.157       .  T
C385        C386   1.403       .  A
C385        C390   1.420       .  A
C386        C387   1.401       .  A
C386        H391   1.085       .  S
C387        C388   1.419       .  A
C387        C394   1.444       .  S
C388        C389   1.405       .  A
C389        C390   1.404       .  A
C389        H392   1.084       .  S
C390        C393   1.445       .  S
C393        N395   1.158       .  T
C394        N396   1.157       .  T
O397        C400   1.265       .  A
O397       Cd402   2.462       .  S
C398        O407   1.265       .  A
C398        O403   1.268       .  A
C398        C745   1.487       .  S
O399        C405   1.272       .  A
O399       Cd402   2.482       .  S
C400        O408   1.265       .  A
C400        C757   1.486       .  S
C401        O406   1.268       .  A
C401        O404   1.263       .  A
C401        C769   1.494       .  S
Cd402       O409   2.447       .  S
Cd402       O408   2.502       .  S
Cd402       O407   2.423       .  S
Cd402       O403   2.473       .  S
Cd402       O406   2.503       .  S
Cd402       O404   2.465       .  S
C405        O409   1.265       .  A
C405        C781   1.494       .  S
O410        C413   1.265       .  A
O410       Cd415   2.499       .  S
C411        O420   1.264       .  A
C411        O416   1.268       .  A
C411        C721   1.485       .  S
O412        C418   1.270       .  A
O412       Cd415   2.491       .  S
C413        O421   1.264   1_556  A
C413        C733   1.483       .  S
C414        O419   1.269       .  A
C414        O417   1.261       .  A
C414        C784   1.495       .  S
Cd415       O422   2.453       .  S
Cd415       O421   2.465   1_556  S
C418        O422   1.266       .  A
C418        C772   1.494       .  S
N423        C427   1.359       .  A
N423        C424   1.361   1_545  A
N423        C700   1.445       .  S
C424        C760   1.488       .  S
C424        C425   1.383       .  A
C425        C426   1.370   1_565  A
C425        H428   1.082       .  S
C426        C427   1.381       .  A
C426        H429   1.082       .  S
C427        C712   1.482       .  S
N430        C434   1.358       .  A
N430        C431   1.359       .  A
N430        C673   1.444       .  S
C431        C688   1.485       .  S
C431        C432   1.382       .  A
C432        C433   1.373       .  A
C432        H435   1.082       .  S
C433        C434   1.382       .  A
C433        H436   1.082       .  S
C434        C736   1.485       .  S
O437        C440   1.267       .  A
O437       Cd442   2.493       .  S
C438        O447   1.265       .  A
C438        O443   1.263       .  A
C438        C685   1.498       .  S
O439        C445   1.269       .  A
C440        O448   1.266       .  A
C440        C637   1.487       .  S
C441        O446   1.266       .  A
C441        O444   1.263       .  A
C441        C649   1.499       .  S
Cd442       O448   2.457       .  S
Cd442       O447   2.502       .  S
Cd442       O443   2.499       .  S
Cd442       O446   2.522       .  S
Cd442       O444   2.486       .  S
C445        O449   1.265       .  A
C445        C661   1.499       .  S
O450        C453   1.266       .  A
O450       Cd455   2.483       .  S
C451        O460   1.264       .  A
C451        O456   1.270       .  A
C451        C625   1.485       .  S
O452        C458   1.269       .  A
O452       Cd455   2.507       .  S
C453        O461   1.265       .  A
C453        C709   1.491       .  S
C454        O459   1.269       .  A
C454        O457   1.265       .  A
C454        C652   1.499       .  S
Cd455       O462   2.474       .  S
Cd455       O461   2.506       .  S
Cd455       O460   2.431       .  S
Cd455       O456   2.489       .  S
Cd455       O459   2.500       .  S
Cd455       O457   2.476       .  S
C458        O462   1.263       .  A
C458        C664   1.494       .  S
O463        C466   1.268       .  A
O463       Cd468   2.488       .  S
C464        O473   1.265       .  A
C464        O469   1.265       .  A
C464        C592   1.497       .  S
O465        C471   1.268       .  A
O465       Cd468   2.513       .  S
C466        O474   1.263       .  A
C466        C748   1.489       .  S
C467        O472   1.268       .  A
C467        O470   1.266       .  A
C467        C613   1.501       .  S
Cd468       O475   2.470       .  S
Cd468       O474   2.435       .  S
Cd468       O473   2.502       .  S
Cd468       O469   2.479       .  S
Cd468       O472   2.496       .  S
Cd468       O470   2.487       .  S
C471        O475   1.263       .  A
C471        C604   1.500       .  S
O476        C479   1.267       .  A
O476       Cd481   2.499       .  S
C477        O486   1.265       .  A
C477        O482   1.266       .  A
C477        C577   1.492       .  S
O478        C484   1.268       .  A
C479        O487   1.264       .  A
C479        C724   1.490       .  S
C480        O485   1.269       .  A
C480        O483   1.265       .  A
C480        C601   1.498       .  S
Cd481       O487   2.442       .  S
Cd481       O486   2.478       .  S
Cd481       O482   2.509       .  S
Cd481       O485   2.502       .  S
Cd481       O483   2.484       .  S
C484        O488   1.265       .  A
C484        C616   1.499       .  S
N489        C493   1.358       .  A
N489        C490   1.356       .  A
N489        C676   1.444       .  S
C490        C565   1.480       .  S
C490        C491   1.381       .  A
C491        C492   1.372       .  A
C491        H494   1.082       .  S
C492        C493   1.383       .  A
C492        H495   1.082       .  S
C493        C580   1.487       .  S
O496        C499   1.268       .  A
C497        O506   1.265       .  A
C497        O502   1.264       .  A
C497        C568   1.488       .  S
O498        C504   1.269       .  A
C499        O507   1.266       .  A
C499        C640   1.490       .  S
C500        O505   1.268       .  A
C500        O503   1.262       .  A
C500        C544   1.496       .  S
Cd501       O506   2.490       .  S
Cd501       O502   2.487       .  S
Cd501       O505   2.520   1_554  S
Cd501       O503   2.458   1_554  S
C504        O508   1.265       .  A
C504        C556   1.499       .  S
O509        C512   1.267       .  A
O509       Cd514   2.472       .  S
C510        O519   1.265       .  A
C510        O515   1.264       .  A
C510        C529   1.492       .  S
O511        C517   1.270       .  A
O511       Cd514   2.502       .  S
C512        O520   1.265       .  A
C512        C628   1.481       .  S
C513        O518   1.267       .  A
C513        O516   1.262       .  A
C513        C553   1.497       .  S
Cd514       O521   2.472       .  S
Cd514       O520   2.448       .  S
Cd514       O519   2.509       .  S
Cd514       O515   2.484       .  S
Cd514       O518   2.518       .  S
Cd514       O516   2.468       .  S
C517        O521   1.265       .  A
C517        C541   1.499       .  S
N522        C526   1.360   1_545  A
N522        C523   1.362       .  A
N522        C697   1.444       .  S
C523        C532   1.488       .  S
C523        C524   1.382       .  A
C524        C525   1.369   1_545  A
C524        H527   1.082       .  S
C525        C526   1.380       .  A
C525        H528   1.082       .  S
C526        C589   1.482       .  S
C529        C530   1.406       .  A
C529        C534   1.416       .  A
C530        C531   1.405       .  A
C530        H535   1.084       .  S
C531        C532   1.412       .  A
C531        C538   1.444       .  S
C532        C533   1.403       .  A
C533        C534   1.404       .  A
C533        H536   1.082       .  S
C534        C537   1.444       .  S
C537        N539   1.157       .  T
C538        N540   1.157       .  T
C541        C542   1.405       .  A
C541        C546   1.420       .  A
C542        C543   1.404       .  A
C542        H547   1.084       .  S
C543        C544   1.418       .  A
C543        C550   1.445       .  S
C544        C545   1.405       .  A
C545        C546   1.407       .  A
C545        H548   1.085       .  S
C546        C549   1.444       .  S
C549        N551   1.157       .  T
C550        N552   1.157       .  T
C553        C554   1.409       .  A
C553        C558   1.414       .  A
C554        C555   1.405       .  A
C554        H559   1.084       .  S
C555        C556   1.416       .  A
C555        C562   1.444       .  S
C556        C557   1.410       .  A
C557        C558   1.405       .  A
C557        H560   1.084       .  S
C558        C561   1.443       .  S
C561        N563   1.157       .  T
C562        N564   1.157       .  T
C565        C570   1.409       .  A
C566        C567   1.402       .  A
C566        H571   1.085   1_554  S
C567        C568   1.415       .  A
C567        C574   1.444   1_554  S
C569        C570   1.403       .  A
C569        H572   1.085       .  S
C570        C573   1.444       .  S
C573        N575   1.157       .  T
C574        N576   1.157       .  T
C577        C578   1.407       .  A
C578        C579   1.402       .  A
C578        H583   1.084       .  S
C579        C580   1.409       .  A
C579        C586   1.443       .  S
C581        C582   1.407   1_554  A
C581        H584   1.084   1_554  S
C582        C585   1.444       .  S
C585        N587   1.157       .  T
C586        N588   1.157       .  T
C589        C590   1.402       .  A
C589        C594   1.410       .  A
C590        C591   1.407       .  A
C590        H595   1.084       .  S
C591        C592   1.420       .  A
C591        C598   1.443       .  S
C592        C593   1.407       .  A
C593        C594   1.401       .  A
C593        H596   1.084       .  S
C594        C597   1.445       .  S
C597        N599   1.157       .  T
C598        N600   1.157       .  T
C601        C602   1.405       .  A
C601        C606   1.418       .  A
C602        C603   1.405       .  A
C602        H607   1.085       .  S
C603        C604   1.419       .  A
C603        C610   1.444       .  S
C604        C605   1.407       .  A
C605        C606   1.406       .  A
C605        H608   1.084       .  S
C606        C609   1.444       .  S
C609        N611   1.157       .  T
C610        N612   1.157       .  T
C613        C614   1.410       .  A
C613        C618   1.416       .  A
C614        C615   1.407       .  A
C614        H619   1.084       .  S
C615        C616   1.415       .  A
C615        C622   1.444       .  S
C616        C617   1.408       .  A
C617        C618   1.405       .  A
C617        H620   1.084       .  S
C618        C621   1.444       .  S
C621        N623   1.157       .  T
C622        N624   1.157       .  T
C625        C626   1.406       .  A
C625        C630   1.416       .  A
C626        C627   1.403       .  A
C626        H631   1.085       .  S
C627        C628   1.413       .  A
C627        C634   1.444       .  S
C628        C629   1.402       .  A
C629        C630   1.399       .  A
C629        H632   1.085       .  S
C630        C633   1.445       .  S
C633        N635   1.157       .  T
C634        N636   1.157       .  T
C637        C638   1.406       .  A
C638        C639   1.406       .  A
C638        H643   1.085       .  S
C639        C640   1.416   1_655  A
C639        C646   1.444   1_655  S
C641        C642   1.399   1_455  A
C641        H644   1.085       .  S
C642        C645   1.445       .  S
C645        N647   1.157       .  T
C646        N648   1.157       .  T
C649        C650   1.408       .  A
C649        C654   1.416       .  A
C650        C651   1.405       .  A
C650        H655   1.084       .  S
C651        C652   1.416       .  A
C651        C658   1.444       .  S
C652        C653   1.409       .  A
C653        C654   1.406       .  A
C653        H656   1.084       .  S
C654        C657   1.444       .  S
C657        N659   1.157       .  T
C658        N660   1.157       .  T
C661        C662   1.409       .  A
C661        C666   1.417       .  A
C662        C663   1.404       .  A
C662        H667   1.085       .  S
C663        C664   1.412       .  A
C663        C670   1.443       .  S
C664        C665   1.408       .  A
C665        C666   1.407       .  A
C665        H668   1.085       .  S
C666        C669   1.444       .  S
C669        N671   1.158       .  T
C670        N672   1.157       .  T
C673        C674   1.399       .  A
C674        C675   1.405       .  A
C674        H679   1.083       .  S
C675        C676   1.417       .  A
C675        C682   1.443       .  S
C677        C678   1.404       .  A
C677        H680   1.083       .  S
C678        C681   1.442       .  S
C681        N683   1.157       .  T
C682        N684   1.157       .  T
C685        C686   1.408       .  A
C686        C687   1.404       .  A
C686        H691   1.084       .  S
C687        C688   1.412       .  A
C687        C694   1.445       .  S
C689        C690   1.406       .  A
C689        H692   1.085       .  S
C690        C693   1.443       .  S
C693        N695   1.157       .  T
C694        N696   1.157       .  T
C697        C698   1.406   1_455  A
C697        C702   1.407       .  A
C698        C699   1.403       .  A
C698        H703   1.085       .  S
C699        C700   1.409       .  A
C699        C706   1.440       .  S
C700        C701   1.408       .  A
C701        C702   1.406   1_655  A
C701        H704   1.085       .  S
C702        C705   1.440       .  S
C705        N707   1.157       .  T
C706        N708   1.157       .  T
C709        C710   1.408       .  A
C709        C714   1.414       .  A
C710        C711   1.406       .  A
C710        H715   1.084       .  S
C711        C712   1.410       .  A
C711        C718   1.444       .  S
C712        C713   1.402       .  A
C713        C714   1.401       .  A
C713        H716   1.083       .  S
C714        C717   1.443       .  S
C717        N719   1.157       .  T
C718        N720   1.157       .  T
C721        C722   1.405       .  A
C722        C723   1.405       .  A
C722        H727   1.085       .  S
C723        C724   1.416   1_655  A
C723        C730   1.443   1_655  S
C725        C726   1.398       .  A
C725        H728   1.085   1_655  S
C726        C729   1.445       .  S
C729        N731   1.157       .  T
C730        N732   1.157       .  T
C733        C734   1.405       .  A
C734        C735   1.404       .  A
C734        H739   1.085       .  S
C735        C742   1.444       .  S
C736        C737   1.403       .  A
C737        C738   1.402       .  A
C737        H740   1.083       .  S
C738        C741   1.444       .  S
C741        N743   1.157       .  T
C742        N744   1.157       .  T
C745        C746   1.405       .  A
C745        C750   1.415       .  A
C746        C747   1.397       .  A
C746        H751   1.085       .  S
C747        C748   1.417       .  A
C747        C754   1.445       .  S
C748        C749   1.407       .  A
C749        C750   1.403       .  A
C749        H752   1.084       .  S
C750        C753   1.444       .  S
C753        N755   1.157       .  T
C754        N756   1.157       .  T
C757        C758   1.406       .  A
C757        C762   1.412       .  A
C758        C759   1.405       .  A
C758        H763   1.085       .  S
C759        C760   1.414       .  A
C759        C766   1.444       .  S
C760        C761   1.402       .  A
C761        C762   1.400       .  A
C761        H764   1.079       .  S
C762        C765   1.444       .  S
C765        N767   1.157       .  T
C766        N768   1.157       .  T
C769        C770   1.409       .  A
C769        C774   1.414       .  A
C770        C771   1.405       .  A
C770        H775   1.084       .  S
C771        C772   1.415       .  A
C771        C778   1.444       .  S
C772        C773   1.408       .  A
C773        C774   1.403       .  A
C773        H776   1.085       .  S
C774        C777   1.444       .  S
C777        N779   1.157       .  T
C778        N780   1.157       .  T
C781        C782   1.403       .  A
C781        C786   1.420       .  A
C782        C783   1.401       .  A
C782        H787   1.085       .  S
C783        C784   1.419       .  A
C783        C790   1.444       .  S
C784        C785   1.405       .  A
C785        C786   1.404       .  A
C785        H788   1.084       .  S
C786        C789   1.445       .  S
C789        N791   1.158       .  T
C790        N792   1.157       .  T
