geometry optimzed in LAMMPS
_audit_creation_date              2020-12-01 
_audit_creation_method            'lammps2cif' 
_symmetry_space_group_name_H-M    'P1' 
_symmetry_Int_Tables_number       1 
_symmetry_cell_setting            triclinic 
loop_ 
_symmetry_equiv_pos_as_xyz 
  x,y,z 
_cell_length_a                    37.62185102 
_cell_length_b                    37.9624666444139 
_cell_length_c                    24.744429240332273 
_cell_angle_alpha                 89.5858934804196 
_cell_angle_beta                  90.62089921602146 
_cell_angle_gamma                 121.32591937213179 
loop_ 
_atom_site_label 
_atom_site_type_symbol 
_atom_site_fract_x 
_atom_site_fract_y 
_atom_site_fract_z 
_atom_site_charge 
N1          N  0.49481929  0.85320288  0.46877785    -0.01300
C2          C  0.50020709  0.82051282  0.47294654     0.01300
C3          C  0.47930198  0.79555312  0.00786458    -0.21600
C4          C  0.46037379  0.81383293  0.03191361    -0.21800
C5          C  0.47318881  0.85015571  0.00450205     0.01200
H6          H  0.47607274  0.76670354  0.02044972     0.14900
H7          H  0.44198629  0.80340931  0.06835449     0.15000
N8          N  0.29928638  0.91212338  0.00005540    -0.01300
C9          C  0.25966775  0.87977043  0.99604739     0.01300
C10         C  0.23454535  0.88356003  0.45735085    -0.21600
C11         C  0.26475599  0.91295635  0.42448405    -0.21800
C12         C  0.30131875  0.93190291  0.45447420     0.01200
H13         H  0.20252863  0.86213810  0.44585437     0.14900
H14         H  0.26109189  0.91728619  0.38196059     0.15000
N15         N  0.60404120  0.10019931  0.29385299    -0.04000
N16         N  0.63002023  0.12377652  0.33243919    -0.56100
N17         N  0.60270641  0.06381890  0.17038313    -0.03700
N18         N  0.62627886  0.06240834  0.13204170    -0.58200
N19         N  0.60587048  0.09999073  0.16971389    -0.03200
N20         N  0.63168594  0.12394368  0.13182784    -0.56100
N21         N  0.60031279  0.06371792  0.29484756    -0.02900
N22         N  0.62389950  0.06204318  0.33334059    -0.58600
C23         C  0.64163561  0.09930242  0.35736527     0.98200
C24         C  0.64418879  0.10023595  0.10850717     0.98000
N25         N  0.48567201  0.95482984  0.16850021    -0.04200
N26         N  0.47077645  0.93260279  0.12391850    -0.56700
N27         N  0.52428103  0.97019404  0.29611417    -0.02300
N28         N  0.53386486  0.95348298  0.33698949    -0.57900
N29         N  0.48376240  0.95422138  0.29409360    -0.04200
N30         N  0.46516777  0.92710183  0.33310608    -0.56900
N31         N  0.52647754  0.97289577  0.17010002    -0.01900
N32         N  0.54014377  0.96362457  0.12690173    -0.58000
Mn33       Mn  0.56427731  0.01697068  0.23320186     1.18400
C34         C  0.50525283  0.93865445  0.09834029     1.00300
C35         C  0.49634812  0.92660646  0.35962716     1.01000
N36         N  0.54153713  0.12887102  0.16122487    -0.04200
N37         N  0.55660506  0.15106508  0.11653315    -0.60500
N38         N  0.50150664  0.11633704  0.28646066    -0.03000
N39         N  0.49066341  0.13247154  0.32583335    -0.61200
N40         N  0.54209511  0.13282335  0.28686947    -0.03700
N41         N  0.55961962  0.16001489  0.32605551    -0.60800
N42         N  0.50068051  0.11008772  0.16085674    -0.02600
N43         N  0.48713033  0.11849206  0.11623177    -0.61500
Mn44       Mn  0.57426205  0.11678072  0.22804639     1.10700
C45         C  0.52208500  0.14390416  0.08875369     1.01500
C46         C  0.52750210  0.15967259  0.35013383     1.01600
N47         N  0.42267362  0.98779929  0.29148031    -0.03700
N48         N  0.39772959  0.96644601  0.33170449    -0.59100
N49         N  0.42446048  0.01944340  0.16421570    -0.03000
N50         N  0.40063335  0.01954392  0.12449912    -0.55800
N51         N  0.42093528  0.98317288  0.16727042    -0.04400
N52         N  0.39453938  0.95780340  0.13040626    -0.58700
N53         N  0.42635720  0.02417217  0.28815812    -0.03300
N54         N  0.40380289  0.02811187  0.32519686    -0.55800
Mn55       Mn  0.45244006  0.96873200  0.23054288     1.20200
Mn56       Mn  0.46254192  0.06817917  0.22492155     1.10100
Cl57       Cl  0.51340915  0.04266221  0.22949552    -0.83800
C58         C  0.38671427  0.99230046  0.35277503     0.98500
C59         C  0.38209738  0.98083098  0.10395125     0.98300
N60         N  0.51891914  0.22656850  0.45774414    -0.01300
C61         C  0.50752924  0.25501148  0.45996367     0.01300
C62         C  0.53558042  0.28595399  0.01009400    -0.21600
C63         C  0.55645775  0.26913085  0.03370456    -0.21800
C64         C  0.54756451  0.23522697  0.00328276     0.01200
H65         H  0.53617147  0.31316163  0.02418393     0.14900
H66         H  0.57393835  0.27892482  0.07125925     0.15000
N67         N  0.73009108  0.16903860  0.01009197    -0.01300
C68         C  0.77094005  0.19868653  0.01231261     0.01300
C69         C  0.79469997  0.20476850  0.47070498    -0.21600
C70         C  0.76487978  0.17659669  0.43583667    -0.21800
C71         C  0.72744529  0.15835594  0.46303140     0.01200
H72         H  0.82714468  0.22541701  0.46108758     0.14900
H73         H  0.76969665  0.17266083  0.39382354     0.15000
N74         N  0.04080754  0.63568589  0.41346678    -0.04000
N75         N  0.04265269  0.65812152  0.45509232    -0.56100
N76         N  0.06269019  0.62976457  0.28280527    -0.03700
N77         N  0.07995131  0.64823983  0.23685257    -0.58200
N78         N  0.02813650  0.62974877  0.29013882    -0.03200
N79         N  0.02128605  0.64830256  0.24981466    -0.56100
N80         N  0.07652291  0.63769967  0.40733477    -0.02900
N81         N  0.10354603  0.66189855  0.44480566    -0.58600
C82         C  0.08191193  0.67451695  0.47411068     0.98200
C83         C  0.05353570  0.65933984  0.21660066     0.98000
N84         N  0.07016906  0.52375965  0.28376623    -0.04200
N85         N  0.08089197  0.50737153  0.24502605    -0.56700
N86         N  0.10106445  0.57017211  0.40328187    -0.02300
N87         N  0.13274360  0.58698188  0.43745600    -0.57900
N88         N  0.07989739  0.52970131  0.40811296    -0.04200
N89         N  0.09679636  0.51820221  0.44606906    -0.56900
N90         N  0.09123917  0.56420376  0.27983589    -0.01900
N91         N  0.11738918  0.57610084  0.23871128    -0.58000
Mn92       Mn  0.08429627  0.60173100  0.34280638     1.18400
C93         C  0.11021834  0.54017774  0.21692667     1.00300
C94         C  0.12950457  0.55434674  0.46415666     1.01000
N95         N  0.93577377  0.56285534  0.30233945    -0.04200
N96         N  0.92054207  0.57584907  0.26402627    -0.60500
N97         N  0.92473059  0.52560657  0.42807243    -0.03000
N98         N  0.89899930  0.51270112  0.46946336    -0.61200
N99         N  0.94666460  0.56617071  0.42666831    -0.03700
N100        N  0.93686440  0.58169042  0.46735867    -0.60800
N101        N  0.91460951  0.52242030  0.30463493    -0.02600
N102        N  0.88399216  0.50694928  0.26873989    -0.61500
Mn103      Mn  0.98775764  0.59961709  0.35859559     1.10700
C104        C  0.88850412  0.54058070  0.24313218     1.01500
C105        C  0.90728204  0.54810651  0.49382982     1.01600
N106        N  0.98363336  0.45767241  0.41816466    -0.03700
N107        N  0.98418014  0.43154021  0.45335926    -0.59100
N108        N  0.94130536  0.45717676  0.29767138    -0.03000
N109        N  0.91642350  0.43681909  0.25670087    -0.55800
N110        N  0.97623065  0.45724777  0.29437981    -0.04400
N111        N  0.97576718  0.43685145  0.25128526    -0.58700
N112        N  0.94806613  0.45644595  0.42087248    -0.03300
N113        N  0.92367223  0.42932725  0.45736103    -0.55800
Mn114      Mn  0.02776680  0.49116772  0.35175721     1.20200
Mn115      Mn  0.93095750  0.48942824  0.36316926     1.10100
Cl116      Cl  0.00778533  0.54545533  0.35454786    -0.83800
C117        C  0.94648112  0.41397807  0.47719965     0.98500
C118        C  0.93838736  0.42443884  0.22811193     0.98300
N119        N  0.19726959  0.54286135  0.08078020    -0.01300
C120        C  0.23320510  0.54499685  0.06653487     0.01300
C121        C  0.26229204  0.56352725  0.10791603    -0.21600
C122        C  0.24377544  0.57360351  0.14783633    -0.21800
C123        C  0.20386656  0.56059629  0.13032781     0.01200
H124        H  0.29406910  0.57057535  0.10878784     0.14900
H125        H  0.25810215  0.58916307  0.18544224     0.15000
N126        N  0.88608506  0.32088484  0.10492551    -0.01300
C127        C  0.85572843  0.28050862  0.10374487     0.01300
C128        C  0.85683456  0.26089458  0.15063997    -0.21600
C129        C  0.88867367  0.29039483  0.18192560    -0.21800
C130        C  0.90567904  0.32677810  0.15316203     0.01200
H131        H  0.83704044  0.22866795  0.16106416     0.14900
H132        H  0.89696112  0.28625011  0.22249048     0.15000
N133        N  0.83552510  0.57010492  0.07647560    -0.01300
C134        C  0.80116970  0.57116601  0.06231232     0.01300
C135        C  0.77856006  0.56754381  0.10816595    -0.21600
C136        C  0.79974086  0.56386709  0.15149424    -0.21800
C137        C  0.83453664  0.56544466  0.13081523     0.01200
H138        H  0.74948272  0.56676575  0.11045186     0.14900
H139        H  0.79093140  0.56085502  0.19353862     0.15000
N140        N  0.14856356  0.74975540  0.58560111    -0.01300
C141        C  0.17198701  0.79153984  0.07525444     0.01300
C142        C  0.17120076  0.80794257  0.12478332    -0.21600
C143        C  0.13961952  0.77655262  0.15355149    -0.21800
C144        C  0.12221164  0.74220929  0.12058138     0.01200
H145        H  0.19131337  0.83920000  0.13893363     0.14900
H146        H  0.13201842  0.77799786  0.19522560     0.15000
N147        N  0.44868173  0.44432444  0.10099764    -0.04000
N148        N  0.42384269  0.41638185  0.06503175    -0.56100
N149        N  0.49277423  0.45762893  0.22363747    -0.03700
N150        N  0.49809928  0.43859188  0.26477161    -0.58200
N151        N  0.45546195  0.45257974  0.22483678    -0.03200
N152        N  0.43432964  0.42929140  0.26644674    -0.56100
N153        N  0.48551199  0.44813000  0.10065352    -0.02900
N154        N  0.48651269  0.42302716  0.06504445    -0.58600
C155        C  0.44790628  0.40322725  0.04322714     0.98200
C156        C  0.46161683  0.42123939  0.29125342     0.98000
N157        N  0.60472770  0.57047891  0.20707895    -0.04200
N158        N  0.63296377  0.58822464  0.24617015    -0.56700
N159        N  0.57792165  0.52164296  0.08849080    -0.02300
N160        N  0.59188028  0.50646970  0.05227338    -0.57900
N161        N  0.59590543  0.56180862  0.08243596    -0.04200
N162        N  0.62252389  0.57477181  0.04206228    -0.56900
N163        N  0.58464537  0.53016477  0.21258065    -0.01900
N164        N  0.59825167  0.51957914  0.25530363    -0.58000
Mn165      Mn  0.53554235  0.48881915  0.15634226     1.18400
C166        C  0.62834255  0.55588876  0.27592029     1.00300
C167        C  0.61935970  0.53982503  0.02330411     1.01000
N168        N  0.42405110  0.51520507  0.22166762    -0.04200
N169        N  0.39739171  0.50165742  0.26215711    -0.60500
N170        N  0.43557675  0.54876019  0.09411340    -0.03000
N171        N  0.41818223  0.55882503  0.05502539    -0.61200
N172        N  0.41724325  0.50836201  0.09786544    -0.03700
N173        N  0.38674920  0.49021745  0.06204282    -0.60800
N174        N  0.44377170  0.55570204  0.21882670    -0.02600
N175        N  0.43128582  0.57047647  0.25759885    -0.61500
Mn176      Mn  0.43500663  0.47907711  0.16115579     1.10700
C177        C  0.40250526  0.53653408  0.28451159     1.01500
C178        C  0.38796279  0.52194933  0.03519337     1.01600
N179        N  0.56429457  0.62595637  0.07865355    -0.03700
N180        N  0.58429152  0.64921271  0.03632831    -0.59100
N181        N  0.53762911  0.62846345  0.20778830    -0.03000
N182        N  0.53845762  0.65083657  0.24889881    -0.55800
N183        N  0.57428985  0.63246088  0.20231004    -0.04400
N184        N  0.60085455  0.65779024  0.23885282    -0.58700
N185        N  0.52805468  0.62314587  0.08348499    -0.03300
N186        N  0.52277543  0.64436020  0.04491580    -0.55800
Mn187      Mn  0.58607884  0.59871248  0.14175409     1.20200
Mn188      Mn  0.48590640  0.58988935  0.15123110     1.10100
Cl189      Cl  0.51055235  0.53911095  0.15220754    -0.83800
C190        C  0.55797918  0.66039889  0.01561845     0.98500
C191        C  0.57798818  0.66852132  0.26804801     0.98300
N192        N  0.42784060  0.31720532  0.40543212    -0.01300
C193        C  0.42985280  0.28268977  0.40387147     0.01300
C194        C  0.40858680  0.25934045  0.35900392    -0.21600
C195        C  0.39421952  0.28119465  0.33123548    -0.21800
C196        C  0.40754106  0.31716638  0.35982830     0.01200
H197        H  0.40587099  0.23087652  0.34603530     0.14900
H198        H  0.37979258  0.27379010  0.29155472     0.15000
N199        N  0.31145606  0.52459516  0.41786207    -0.01300
C200        C  0.27526649  0.52094668  0.43389760     0.01300
C201        C  0.24631577  0.50452016  0.39203747    -0.21600
C202        C  0.26535897  0.49755706  0.34962128    -0.21800
C203        C  0.30535125  0.51025485  0.36639509     0.01200
H204        H  0.21423964  0.49655658  0.39249169     0.14900
H205        H  0.25132583  0.48418696  0.31091132     0.15000
N206        N  0.71059794  0.56885692  0.42136110    -0.01300
C207        C  0.74177803  0.56343189  0.43935643     0.01300
C208        C  0.77118700  0.57490043  0.39894795    -0.21600
C209        C  0.75759606  0.58766655  0.35534703    -0.21800
C210        C  0.72034003  0.58346305  0.37006962     0.01200
H211        H  0.79999738  0.57506242  0.40079299     0.14900
H212        H  0.77272569  0.59783632  0.31657431     0.15000
N213        N  0.56737062  0.74303337  0.42118094    -0.01300
C214        C  0.56751649  0.77889991  0.42061847     0.01300
C215        C  0.58947653  0.80251251  0.37631938    -0.21600
C216        C  0.60082061  0.77935914  0.34716249    -0.21800
C217        C  0.58548343  0.74241960  0.37456462     0.01200
H218        H  0.59415477  0.83197895  0.36384020     0.14900
H219        H  0.61399515  0.78671200  0.30705435     0.15000
C220        C  0.33553415  0.50672008  0.33215686    -0.14300
C221        C  0.37507429  0.53777845  0.32603412    -0.29500
H222        H  0.32334301  0.47993763  0.30602001     0.14700
H223        H  0.38616335  0.56638532  0.34794489     0.15300
C224        C  0.35955385  0.54531047  0.96188552    -0.14300
C225        C  0.35501507  0.51620216  0.99701015    -0.29500
H226        H  0.38917265  0.57413777  0.95834295     0.14700
H227        H  0.32597387  0.48657992  0.99699867     0.15300
C228        C  0.59652519  0.70334387  0.30530218    -0.14300
C229        C  0.57476963  0.70385299  0.34710055    -0.29500
H230        H  0.62698180  0.72984614  0.29616480     0.14700
H231        H  0.54550304  0.67614319  0.35744981     0.15300
C232        C  0.54571345  0.70583621  0.95392735    -0.14300
C233        C  0.56752124  0.68779570  0.96784233    -0.29500
H234        H  0.52048866  0.70158433  0.97948156     0.14700
H235        H  0.59451065  0.69456595  0.94417992     0.15300
C236        C  0.65354417  0.55807620  0.32347411    -0.14300
C237        C  0.69302544  0.58871339  0.33135874    -0.29500
H238        H  0.64097546  0.53071712  0.34879872     0.14700
H239        H  0.70733049  0.61400091  0.30256561     0.15300
C240        C  0.64831551  0.53884938  0.98457615    -0.14300
C241        C  0.67545148  0.57198335  0.95584307    -0.29500
H242        H  0.64789791  0.51019472  0.97995094     0.14700
H243        H  0.67322395  0.59314059  0.45120094     0.15300
C244        C  0.41254055  0.35455297  0.33364685    -0.14300
C245        C  0.45055365  0.38867312  0.33143743    -0.29500
H246        H  0.38784928  0.35148521  0.30719285     0.14700
H247        H  0.47634007  0.38952577  0.35288010     0.15300
C248        C  0.46226560  0.36535168  0.97475866    -0.14300
C249        C  0.43605388  0.37583320  0.99576216    -0.29500
H250        H  0.47403469  0.35523049  0.46726192     0.14700
H251        H  0.40727297  0.36739380  0.97459819     0.15300
C252        C  0.74596491  0.55083960  0.49531868    -0.14300
C253        C  0.77390460  0.53979203  0.50820458    -0.29500
H254        H  0.73417715  0.57300226  0.02376442     0.14700
H255        H  0.79273885  0.53825906  0.47655721     0.15300
C256        C  0.24147044  0.53394199  0.01192547    -0.14300
C257        C  0.26652848  0.52822800  0.49020127    -0.29500
H258        H  0.21642061  0.52215038  0.98238343     0.14700
H259        H  0.28951363  0.53418088  0.52128121     0.15300
C260        C  0.86708054  0.56487323  0.16406736    -0.14300
C261        C  0.85689981  0.53917557  0.20634504    -0.29500
H262        H  0.89952657  0.58545736  0.15356743     0.14700
H263        H  0.82448591  0.51604053  0.21372259     0.15300
C264        C  0.88163530  0.55081501  0.53617063    -0.14300
C265        C  0.84127068  0.52217886  0.54133631    -0.29500
H266        H  0.89499553  0.57873997  0.56023874     0.14700
H267        H  0.87954789  0.59594431  0.00997363     0.15300
C268        C  0.91918481  0.39221637  0.18696253    -0.14300
C269        C  0.93322254  0.36677660  0.17857411    -0.29500
H270        H  0.88962391  0.38533738  0.16945925     0.14700
H271        H  0.96039580  0.37102368  0.20037310     0.15300
C272        C  0.93302405  0.38429179  0.52228149    -0.14300
C273        C  0.89264934  0.36077820  0.53572561    -0.29500
H274        H  0.95670948  0.38440003  0.54789731     0.14700
H275        H  0.87054981  0.34960288  0.03899322     0.15300
C276        C  0.17439469  0.56720255  0.16213277    -0.14300
C277        C  0.13599539  0.53622946  0.17490186    -0.29500
H278        H  0.18700828  0.59661551  0.18258230     0.14700
H279        H  0.12486786  0.50575294  0.15837137     0.15300
C280        C  0.16162187  0.55796161  0.50194083    -0.14300
C281        C  0.15401828  0.52818270  0.53739490    -0.29500
H282        H  0.19205837  0.58608204  0.50159056     0.14700
H283        H  0.14765440  0.50033717  0.02606827     0.15300
C284        C  0.06680855  0.69290738  0.17805920    -0.14300
C285        C  0.09549191  0.70034586  0.14133175    -0.29500
H286        H  0.05723643  0.71505446  0.18481551     0.14700
H287        H  0.10366123  0.67742998  0.13245359     0.15300
C288        C  0.09655947  0.69920416  0.52427094    -0.14300
C289        C  0.13686541  0.72518729  0.53688495    -0.29500
H290        H  0.07289825  0.69758203  0.55072704     0.14700
H291        H  0.16081586  0.73006072  0.50842841     0.15300
C292        C  0.79343840  0.22222916  0.06095493    -0.14300
C293        C  0.82845675  0.25949627  0.05690599    -0.29500
H294        H  0.78159983  0.20834903  0.10021037     0.14700
H295        H  0.83829672  0.27445515  0.01779261     0.15300
C296        C  0.47556746  0.25549640  0.42515817    -0.14300
C297        C  0.45592799  0.27480274  0.44095660    -0.29500
H298        H  0.46940485  0.24135803  0.38552278     0.14700
H299        H  0.46201345  0.28850148  0.48083905     0.15300
C300        C  0.67460802  0.11462853  0.06398701    -0.14300
C301        C  0.70063372  0.15514047  0.05374246    -0.28300
H302        H  0.67644031  0.09181227  0.03994828     0.14700
H303        H  0.70124487  0.17802075  0.08049692     0.15300
C304        C  0.68042962  0.11597182  0.38883150    -0.14300
C305        C  0.68609018  0.13547047  0.43595656    -0.29500
H306        H  0.70488659  0.11213357  0.37252786     0.14700
H307        H  0.66039068  0.13666734  0.45350372     0.15300
C308        C  0.55437439  0.20326180  0.02641207    -0.14300
C309        C  0.52119871  0.16747321  0.04169554    -0.29500
H310        H  0.58435594  0.21336729  0.04534607     0.14700
H311        H  0.49064672  0.15922978  0.02628969     0.15300
C312        C  0.53427168  0.18648632  0.39711252    -0.14300
C313        C  0.50638830  0.19495023  0.41685980    -0.29500
H314        H  0.56559508  0.20278053  0.41388399     0.14700
H315        H  0.47585227  0.18134218  0.39803706     0.15300
C316        C  0.23568294  0.85188608  0.04054239    -0.14300
C317        C  0.20046440  0.81547429  0.03125796    -0.29500
H318        H  0.24635554  0.86229202  0.08149220     0.14700
H319        H  0.18941427  0.80719935  0.50384715     0.15300
C320        C  0.32658859  0.92535036  0.04687216    -0.14300
C321        C  0.35214843  0.96581259  0.05818811    -0.29500
H322        H  0.32555263  0.90219288  0.07396597     0.14700
H323        H  0.35064884  0.98871481  0.03335552     0.15300
C324        C  0.34286837  0.95516321  0.42982223    -0.14300
C325        C  0.34942867  0.97781003  0.38535919    -0.29500
H326        H  0.36737256  0.95084027  0.44578545     0.14700
H327        H  0.32616406  0.98459338  0.37124345     0.15300
C328        C  0.52939834  0.81440226  0.44054317    -0.14300
C329        C  0.54177825  0.78807681  0.45580421    -0.29500
H330        H  0.54012110  0.83134570  0.40293208     0.14700
H331        H  0.53079061  0.76898548  0.98220001     0.15300
C332        C  0.47061985  0.88344969  0.03064165    -0.14300
C333        C  0.50548275  0.91541540  0.05113339    -0.29500
H334        H  0.44063956  0.87612957  0.04621892     0.14700
H335        H  0.53547415  0.92064523  0.03859272     0.15300
C336        C  0.51109300  0.88500775  0.42705048    -0.14300
C337        C  0.48759739  0.89969298  0.40774404    -0.29500
H338        H  0.54025491  0.89383372  0.40745977     0.14700
H339        H  0.45695456  0.88759877  0.42493240     0.15300
N340        N  0.49858892  0.85463155  0.96283275    -0.01300
C341        C  0.50323211  0.82136226  0.96614504     0.01300
C342        C  0.47464070  0.79354320  0.51268302    -0.21600
C343        C  0.45388691  0.81069234  0.53485892    -0.21800
C344        C  0.46744075  0.84753154  0.50831817     0.01200
H345        H  0.47186412  0.76492458  0.52547686     0.14900
H346        H  0.43399848  0.79934062  0.56992436     0.15000
N347        N  0.29417921  0.91640124  0.50526779    -0.01300
C348        C  0.25368200  0.88555679  0.50631495     0.01300
C349        C  0.24379590  0.87798468  0.94465187    -0.21600
C350        C  0.27508931  0.90955391  0.91574169    -0.21800
C351        C  0.30880022  0.92950013  0.95049734     0.01200
H352        H  0.21303335  0.85607600  0.92929417     0.14900
H353        H  0.27424719  0.91545515  0.87302403     0.15000
N354        N  0.60240702  0.09969688  0.79177212    -0.04000
N355        N  0.62670201  0.12121232  0.83270381    -0.56100
N356        N  0.60095193  0.06561671  0.66675981    -0.03700
N357        N  0.62528313  0.06484929  0.62906846    -0.58200
N358        N  0.60507481  0.10219374  0.66787920    -0.03200
N359        N  0.63218306  0.12699911  0.63168068    -0.56100
N360        N  0.59828267  0.06306064  0.79055220    -0.02900
N361        N  0.61978512  0.05909350  0.82985332    -0.58600
C362        C  0.63676569  0.09518261  0.85644319     0.98200
C363        C  0.64449377  0.10340365  0.60762111     0.98000
N364        N  0.48229089  0.95705714  0.66535564    -0.04200
N365        N  0.46598981  0.93454095  0.62132065    -0.56700
N366        N  0.52317160  0.97081048  0.79088669    -0.02300
N367        N  0.53346918  0.95358101  0.83029941    -0.57900
N368        N  0.48279910  0.95554452  0.79092773    -0.04200
N369        N  0.46491991  0.92817079  0.82995508    -0.56900
N370        N  0.52306937  0.97498525  0.66493168    -0.01900
N371        N  0.53538098  0.96541191  0.62073942    -0.58000
Mn372      Mn  0.56222243  0.01798708  0.72820157     1.18400
C373        C  0.49961451  0.94030379  0.59384664     1.00300
C374        C  0.49651853  0.92693593  0.85430369     1.01000
N375        N  0.54216184  0.13250737  0.66161399    -0.04200
N376        N  0.55762508  0.15451384  0.61692619    -0.60500
N377        N  0.50263686  0.12028713  0.78653797    -0.03000
N378        N  0.49230139  0.13738303  0.82526327    -0.61200
N379        N  0.54306209  0.13585002  0.78720425    -0.03700
N380        N  0.56099466  0.16346427  0.82593493    -0.60800
N381        N  0.50132950  0.11418219  0.66108934    -0.02600
N382        N  0.48813325  0.12274691  0.61630935    -0.61500
Mn383      Mn  0.57416699  0.11890027  0.72741571     1.10700
C384        C  0.52334813  0.14776875  0.58906834     1.01500
C385        C  0.52927867  0.16436523  0.84942977     1.01600
N386        N  0.42456143  0.99233676  0.79177734    -0.03700
N387        N  0.40290170  0.97233056  0.83474467    -0.59100
N388        N  0.42370380  0.02370758  0.66474823    -0.03000
N389        N  0.39982828  0.02419827  0.62534395    -0.55800
N390        N  0.41944272  0.98711344  0.66769844    -0.04400
N391        N  0.39262138  0.96198593  0.63103829    -0.58700
N392        N  0.42818026  0.02868733  0.78876958    -0.03300
N393        N  0.40875804  0.03396127  0.82889156    -0.55800
Mn394      Mn  0.45126875  0.97171463  0.72926554     1.20200
Mn395      Mn  0.46306936  0.07231700  0.72509574     1.10100
Cl396      Cl  0.51271481  0.04524527  0.72765294    -0.83800
C397        C  0.39364381  0.99888521  0.85765770     0.98500
C398        C  0.38064322  0.98543352  0.60476989     0.98300
N399        N  0.52248362  0.23089086  0.96045130    -0.01300
C400        C  0.51447911  0.26182160  0.96550782     0.01300
C401        C  0.53015073  0.28379655  0.49985033    -0.21600
C402        C  0.55529147  0.27189074  0.52396040    -0.21800
C403        C  0.54717634  0.23625478  0.49837197     0.01200
H404        H  0.52808667  0.31010850  0.51136218     0.14900
H405        H  0.57432539  0.28548732  0.55974693     0.15000
N406        N  0.73378744  0.17316584  0.51418756    -0.01300
C407        C  0.77462540  0.20310297  0.51820953     0.01300
C408        C  0.78921886  0.20309841  0.96246787    -0.21600
C409        C  0.75821104  0.17616172  0.92811347    -0.21800
C410        C  0.72212976  0.15622766  0.95818016     0.01200
H411        H  0.82140337  0.22398596  0.95176800     0.14900
H412        H  0.76118265  0.17357607  0.88508287     0.15000
N413        N  0.03253309  0.62413918  0.91196491    -0.04000
N414        N  0.03438791  0.65010188  0.94874430    -0.56100
N415        N  0.05726697  0.61199881  0.78566686    -0.03700
N416        N  0.07872860  0.63335579  0.74316433    -0.58200
N417        N  0.02219982  0.61165641  0.78860849    -0.03200
N418        N  0.01954745  0.63330702  0.74844949    -0.56100
N419        N  0.06851277  0.62628433  0.90891780    -0.02900
N420        N  0.09566123  0.65399332  0.94342723    -0.58600
C421        C  0.07391463  0.66868749  0.96784825     0.98200
C422        C  0.05475660  0.64629369  0.71988249     0.98000
N423        N  0.06658089  0.50698765  0.80332090    -0.04200
N424        N  0.08000502  0.48968677  0.76968272    -0.56700
N425        N  0.09413174  0.55985962  0.91855180    -0.02300
N426        N  0.12335771  0.57969274  0.95544326    -0.57900
N427        N  0.07515396  0.51971638  0.92625050    -0.04200
N428        N  0.09174337  0.51145409  0.96822098    -0.56900
N429        N  0.08578609  0.54694916  0.79475954    -0.01900
N430        N  0.11250663  0.55746812  0.75459567    -0.58000
Mn431      Mn  0.07750543  0.58707326  0.85149965     1.18400
C432        C  0.10808870  0.52122560  0.73877826     1.00300
C433        C  0.12157813  0.54929227  0.98606946     1.01000
N434        N  0.92801490  0.54100060  0.80406212    -0.04200
N435        N  0.91051819  0.55018205  0.76414380    -0.60500
N436        N  0.91896151  0.51279681  0.93553826    -0.03000
N437        N  0.89400324  0.50184351  0.97760143    -0.61200
N438        N  0.93802621  0.55296374  0.92774278    -0.03700
N439        N  0.92609484  0.56997052  0.96412849    -0.60800
N440        N  0.90756652  0.50093448  0.81240325    -0.02600
N441        N  0.87545668  0.48218875  0.77888918    -0.61500
Mn442      Mn  0.97986878  0.58325902  0.85800242     1.10700
C443        C  0.87807188  0.51310648  0.74831737     1.01500
C444        C  0.89888860  0.53779223  0.99518530     1.01600
N445        N  0.98073275  0.44712191  0.93933833    -0.03700
N446        N  0.98383457  0.42524092  0.97882310    -0.59100
N447        N  0.93660376  0.43721274  0.81668932    -0.03000
N448        N  0.91573788  0.42258299  0.77095145    -0.55800
N449        N  0.97245901  0.43909818  0.81416695    -0.04400
N450        N  0.97616438  0.42602125  0.76647896    -0.58700
N451        N  0.94457914  0.44468960  0.94120008    -0.03300
N452        N  0.92213499  0.42058128  0.98164844    -0.55800
Mn453      Mn  0.02388591  0.47715594  0.87135068     1.20200
Mn454      Mn  0.92571425  0.47282238  0.87720287     1.10100
Cl455      Cl  0.00176464  0.53013435  0.86477542    -0.83800
C456        C  0.94720641  0.40893969  0.00497090     0.98500
C457        C  0.94075685  0.41601918  0.73910340     0.98300
N458        N  0.18612370  0.53244611  0.57352764    -0.01300
C459        C  0.22027831  0.53112207  0.56011628     0.01300
C460        C  0.24087859  0.53103275  0.60694373    -0.21600
C461        C  0.21822794  0.53212759  0.64992456    -0.21800
C462        C  0.18466782  0.53298775  0.62802063     0.01200
H463        H  0.26870278  0.52944666  0.61009102     0.14900
H464        H  0.22574271  0.53265967  0.69236357     0.15000
N465        N  0.88037905  0.34170586  0.58829564    -0.01300
C466        C  0.84997415  0.30231329  0.59871754     0.01300
C467        C  0.84377579  0.29693996  0.65401049    -0.21600
C468        C  0.87098916  0.33470726  0.67781838    -0.21800
C469        C  0.89290655  0.36184974  0.63621697     0.01200
H470        H  0.82176733  0.26897127  0.67499415     0.14900
H471        H  0.87298987  0.34144885  0.72046962     0.15000
N472        N  0.81541070  0.52780232  0.57830320    -0.01300
C473        C  0.78270220  0.53182316  0.56446860     0.01300
C474        C  0.76235752  0.53184894  0.61085709    -0.21600
C475        C  0.78360139  0.52784989  0.65412789    -0.21800
C476        C  0.81641395  0.52585581  0.63291382     0.01200
H477        H  0.73580674  0.53553872  0.61359252     0.14900
H478        H  0.77686611  0.52825810  0.69644854     0.15000
N479        N  0.14120615  0.75137896  0.07212806    -0.01300
C480        C  0.17688475  0.79075401  0.59005831     0.01300
C481        C  0.17796366  0.80372884  0.64258807    -0.21600
C482        C  0.14957783  0.76962873  0.67126910    -0.21800
C483        C  0.13207173  0.73698458  0.63547333     0.01200
H484        H  0.19662577  0.83464696  0.65851103     0.14900
H485        H  0.14328938  0.76851932  0.71402557     0.15000
N486        N  0.43987068  0.43273237  0.57271161    -0.04000
N487        N  0.41611389  0.40859602  0.53307164    -0.56100
N488        N  0.47777796  0.43852201  0.69887316    -0.03700
N489        N  0.48406539  0.42734516  0.74704868    -0.58200
N490        N  0.44106962  0.43483179  0.69723282    -0.03200
N491        N  0.42197482  0.42090094  0.74368214    -0.56100
N492        N  0.47602211  0.43512601  0.57315965    -0.02900
N493        N  0.47756030  0.41251087  0.53389919    -0.58600
C494        C  0.43997263  0.39627162  0.50918320     0.98200
C495        C  0.44883878  0.41618697  0.77490914     0.98000
N496        N  0.59008166  0.55102886  0.69388794    -0.04200
N497        N  0.61893963  0.56726987  0.73226411    -0.56700
N498        N  0.56973636  0.50887072  0.57135712    -0.02300
N499        N  0.58731186  0.49613904  0.53697444    -0.57900
N500        N  0.58779163  0.54933262  0.56924356    -0.04200
N501        N  0.61794979  0.56473145  0.53319317    -0.56900
N502        N  0.57154331  0.51060255  0.69457033    -0.01900
N503        N  0.58783482  0.49859244  0.73257244    -0.58000
Mn504      Mn  0.52390444  0.47217565  0.63441695     1.18400
C505        C  0.61680183  0.53409394  0.75646694     1.00300
C506        C  0.61697352  0.53114922  0.51291528     1.01000
N507        N  0.40901126  0.49595907  0.69643120    -0.04200
N508        N  0.37991718  0.47940542  0.73385691    -0.60500
N509        N  0.42756735  0.53674119  0.57264438    -0.03000
N510        N  0.41353911  0.54870259  0.53154219    -0.61200
N511        N  0.41053829  0.49643483  0.57171789    -0.03700
N512        N  0.38509359  0.48020935  0.53001862    -0.60800
N513        N  0.42828578  0.53641053  0.69834388    -0.02600
N514        N  0.41288070  0.54809611  0.73750133    -0.61500
Mn515      Mn  0.42394245  0.46391302  0.63418349     1.10700
C516        C  0.38304171  0.51215989  0.75993402     1.01500
C517        C  0.38725645  0.51302265  0.50530164     1.01600
N518        N  0.55646659  0.61455334  0.57032325    -0.03700
N519        N  0.57987410  0.64211018  0.53338671    -0.59100
N520        N  0.52294273  0.60965216  0.69762349    -0.03000
N521        N  0.52249630  0.63130788  0.73890575    -0.55800
N522        N  0.55963117  0.61337459  0.69424873    -0.04400
N523        N  0.58480864  0.63774926  0.73261820    -0.58700
N524        N  0.52029851  0.61212060  0.57337410    -0.03300
N525        N  0.51848222  0.63790933  0.53879860    -0.55800
Mn526      Mn  0.57453617  0.58296820  0.63120300     1.20200
Mn527      Mn  0.47428765  0.57454591  0.63577690     1.10100
Cl528      Cl  0.49926010  0.52349532  0.63356553    -0.83800
C529        C  0.55576085  0.65631145  0.51394976     0.98500
C530        C  0.56119313  0.64822106  0.76078607     0.98300
N531        N  0.45605635  0.34820926  0.92105884    -0.01300
C532        C  0.46099245  0.31671701  0.90600308     0.01300
C533        C  0.45683923  0.31199738  0.85045150    -0.21600
C534        C  0.45080077  0.34267027  0.83082562    -0.21800
C535        C  0.45164551  0.36534904  0.87506432     0.01200
H536        H  0.45997806  0.29020092  0.82619080     0.14900
H537        H  0.44837932  0.34840376  0.78858485     0.15000
N538        N  0.32564117  0.53752337  0.92645518    -0.01300
C539        C  0.28842883  0.53207379  0.94158427     0.01300
C540        C  0.26242530  0.52119981  0.89668466    -0.21600
C541        C  0.28445339  0.51975762  0.85324276    -0.21800
C542        C  0.32337134  0.53007343  0.87259804     0.01200
H543        H  0.23112504  0.51547565  0.89491391     0.14900
H544        H  0.27345586  0.51277068  0.81185143     0.15000
N545        N  0.70431565  0.56977707  0.92053821    -0.01300
C546        C  0.73847157  0.56860763  0.93548223     0.01300
C547        C  0.75625006  0.56282505  0.89015343    -0.21600
C548        C  0.73186687  0.56008427  0.84649879    -0.21800
C549        C  0.70017569  0.56450526  0.86639171     0.01200
H550        H  0.78341279  0.56009108  0.88838633     0.14900
H551        H  0.73674174  0.55526645  0.80484046     0.15000
N552        N  0.55788435  0.73366613  0.90799886    -0.01300
C553        C  0.55937856  0.77022511  0.90473108     0.01300
C554        C  0.57685423  0.78950974  0.85610782    -0.21600
C555        C  0.58430502  0.76312722  0.82766857    -0.21800
C556        C  0.57119614  0.72854893  0.85969610     0.01200
H557        H  0.58133201  0.81831662  0.84095740     0.14900
H558        H  0.59385693  0.76694320  0.78587422     0.15000
C559        C  0.35774282  0.53351832  0.83884439    -0.14300
C560        C  0.35011164  0.50845211  0.79628980    -0.29500
H561        H  0.38965205  0.55643628  0.84960523     0.14700
H562        H  0.31852244  0.48319239  0.78869401     0.15300
C563        C  0.34653015  0.53530037  0.45260676    -0.14300
C564        C  0.35880971  0.50834305  0.46101148    -0.29500
H565        H  0.35862132  0.56237562  0.47816532     0.14700
H566        H  0.34349836  0.47939024  0.43899732     0.15300
C567        C  0.57974869  0.68493602  0.79516383    -0.14300
C568        C  0.55923272  0.68797042  0.83690916    -0.29500
H569        H  0.60974374  0.71110831  0.78353842     0.14700
H570        H  0.53051082  0.66102443  0.85052143     0.15300
C571        C  0.55088284  0.71081653  0.46203907    -0.14300
C572        C  0.57020219  0.68983000  0.47332909    -0.29500
H573        H  0.52389740  0.70470543  0.48521562     0.14700
H574        H  0.59889150  0.69836562  0.45256840     0.15300
C575        C  0.64983695  0.53646518  0.79138988    -0.14300
C576        C  0.66606400  0.56244521  0.83337945    -0.29500
H577        H  0.65992075  0.51487994  0.78353614     0.14700
H578        H  0.65329720  0.58124364  0.84463525     0.15300
C579        C  0.65037770  0.53290876  0.47985035    -0.14300
C580        C  0.67745980  0.56693886  0.45251500    -0.29500
H581        H  0.65279055  0.50566442  0.47774215     0.14700
H582        H  0.67556377  0.60059669  0.95822338     0.15300
C583        C  0.45372044  0.40568621  0.87446454    -0.14300
C584        C  0.45148546  0.42664470  0.83215403    -0.29500
H585        H  0.45769784  0.42084710  0.91280249     0.14700
H586        H  0.45174952  0.45481755  0.84086421     0.15300
C587        C  0.44541100  0.34848534  0.44696912    -0.14300
C588        C  0.42503391  0.36667939  0.46399627    -0.29500
H589        H  0.49021612  0.37223223  0.99692841     0.14700
H590        H  0.39518942  0.35805024  0.44575569     0.15300
C591        C  0.75314622  0.57154868  0.99226121    -0.14300
C592        C  0.78810528  0.57173943  0.00555171    -0.29500
H593        H  0.72656567  0.55187188  0.52654856     0.14700
H594        H  0.80743392  0.57108918  0.97393183     0.15300
C595        C  0.23116437  0.52690160  0.50368661    -0.14300
C596        C  0.27870461  0.53946355  0.99744041    -0.29500
H597        H  0.20887884  0.52223996  0.47224569     0.14700
H598        H  0.30371031  0.55100023  0.02700778     0.15300
C599        C  0.85029647  0.52651198  0.66524167    -0.14300
C600        C  0.84354734  0.50832390  0.71389951    -0.29500
H601        H  0.88162290  0.54277536  0.64918557     0.14700
H602        H  0.81198320  0.48909486  0.72861080     0.15300
C603        C  0.87251842  0.54001101  0.03726508    -0.14300
C604        C  0.86572518  0.57138430  0.03984448    -0.29500
H605        H  0.85568315  0.51378943  0.06418899     0.14700
H606        H  0.82662665  0.49616481  0.51373878     0.15300
C607        C  0.94480260  0.42949608  0.68269352    -0.14300
C608        C  0.92252994  0.40720567  0.63991223    -0.29500
H609        H  0.96702271  0.46206304  0.67572801     0.14700
H610        H  0.92884002  0.42473409  0.60279920     0.15300
C611        C  0.93546071  0.37901280  0.04986708    -0.14300
C612        C  0.89576189  0.35124201  0.06287544    -0.29500
H613        H  0.96045251  0.37803595  0.07078560     0.14700
H614        H  0.86871463  0.35874235  0.50865089     0.15300
C615        C  0.15309822  0.53664296  0.65904450    -0.14300
C616        C  0.13943719  0.51814867  0.70715454    -0.29500
H617        H  0.13976455  0.55346685  0.64111510     0.14700
H618        H  0.14984651  0.49811805  0.72263381     0.15300
C619        C  0.15156871  0.55756882  0.03003045    -0.14300
C620        C  0.16191920  0.53022012  0.04571103    -0.29500
H621        H  0.16899862  0.58868700  0.04616332     0.14700
H622        H  0.12290015  0.50126081  0.54103065     0.15300
C623        C  0.07303965  0.68378315  0.68649975    -0.14300
C624        C  0.10456238  0.69379858  0.65270741    -0.29500
H625        H  0.06348318  0.70580966  0.69425381     0.14700
H626        H  0.11298404  0.67133249  0.64227724     0.15300
C627        C  0.08905739  0.69818270  0.01342633    -0.14300
C628        C  0.12952045  0.72388275  0.02626216    -0.29500
H629        H  0.06556519  0.69964245  0.03676553     0.14700
H630        H  0.15359239  0.72539913  0.00073025     0.15300
C631        C  0.79431444  0.23263834  0.56401158    -0.14300
C632        C  0.82840025  0.27041882  0.55613818    -0.29500
H633        H  0.77970561  0.22410614  0.60335486     0.14700
H634        H  0.84102540  0.27922797  0.51577763     0.15300
C635        C  0.49011217  0.27174965  0.92727571    -0.14300
C636        C  0.47490653  0.29534699  0.94335080    -0.29500
H637        H  0.48785032  0.26262750  0.88535890     0.14700
H638        H  0.47603838  0.30240110  0.98594545     0.15300
C639        C  0.67661827  0.11866549  0.56533252    -0.14300
C640        C  0.70286983  0.15930001  0.55598621    -0.28300
H641        H  0.67948011  0.09614916  0.54200968     0.14700
H642        H  0.70240856  0.18200929  0.58194271     0.15300
C643        C  0.67372468  0.10970668  0.89025560    -0.14300
C644        C  0.68043756  0.13309544  0.93359252    -0.29500
H645        H  0.69689396  0.10257994  0.87771014     0.14700
H646        H  0.65621201  0.13793149  0.94840865     0.15300
C647        C  0.55545046  0.20683527  0.52647353    -0.14300
C648        C  0.52295301  0.17017161  0.54066902    -0.29500
H649        H  0.58490097  0.21897067  0.54789322     0.14700
H650        H  0.49256047  0.15999201  0.52289467     0.15300
C651        C  0.53624458  0.19054162  0.89748870    -0.14300
C652        C  0.50997275  0.20174239  0.91610452    -0.29500
H653        H  0.56665452  0.20383038  0.91651014     0.14700
H654        H  0.48087538  0.19176787  0.89487600     0.15300
C655        C  0.23310750  0.85699707  0.55208506    -0.14300
C656        C  0.20007653  0.81854617  0.54451673    -0.29500
H657        H  0.24586595  0.86755496  0.59228015     0.14700
H658        H  0.19142758  0.80362945  0.99048758     0.15300
C659        C  0.32407105  0.92992500  0.54919203    -0.14300
C660        C  0.35004118  0.97044667  0.55968428    -0.29500
H661        H  0.32374410  0.90697030  0.57599722     0.14700
H662        H  0.34794405  0.99320142  0.53527752     0.15300
C663        C  0.35113389  0.95688777  0.93132225    -0.14300
C664        C  0.35841162  0.98474808  0.89336012    -0.29500
H665        H  0.37493917  0.95012502  0.94285896     0.14700
H666        H  0.33539687  0.99301188  0.88370790     0.15300
C667        C  0.52903871  0.81259518  0.93020503    -0.14300
C668        C  0.53945063  0.78431299  0.94331031    -0.29500
H669        H  0.53802303  0.82846227  0.89167953     0.14700
H670        H  0.53096001  0.77108381  0.49339292     0.15300
C671        C  0.46360332  0.88026468  0.53394918    -0.14300
C672        C  0.49827009  0.91545310  0.54783892    -0.29500
H673        H  0.43445905  0.87147285  0.55367212     0.14700
H674        H  0.52800414  0.92244754  0.53167278     0.15300
C675        C  0.51320453  0.88563123  0.92009443    -0.14300
C676        C  0.48910904  0.90019408  0.90243209    -0.29500
H677        H  0.54152786  0.89394603  0.89859719     0.14700
H678        H  0.45917341  0.88849185  0.92156043     0.15300
loop_ 
_geom_bond_atom_site_label_1 
_geom_bond_atom_site_label_2 
_geom_bond_distance 
_geom_bond_site_symmetry_2 
_ccdc_geom_bond_type 
N1            C2   1.361       .  A
N1          C344   1.361       .  A
N1          C336   1.458       .  S
C2          C328   1.480       .  S
C2          C342   1.386       .  A
C3            C4   1.368       .  A
C3          C341   1.387   1_554  A
C3            H6   1.081       .  S
C4            C5   1.377       .  A
C4            H7   1.083       .  S
C5          N340   1.362   1_554  A
C5          C332   1.472       .  S
N8            C9   1.355   1_554  A
N8          C351   1.349   1_554  A
N8          C320   1.448       .  S
C9          C316   1.469   1_556  S
C9          C349   1.386       .  A
C10          C11   1.374       .  A
C10         C348   1.385       .  A
C10          H13   1.082       .  S
C11          C12   1.385       .  A
C11          H14   1.082       .  S
C12         N347   1.353       .  A
C12         C324   1.474       .  S
N15          N16   1.323       .  A
N15          N21   1.318       .  A
N15         Mn44   2.232       .  S
N16          C23   1.357       .  A
N17          N19   1.315       .  A
N17          N18   1.326       .  A
N17         Mn33   2.237       .  S
N18          C24   1.359       .  A
N19          N20   1.318       .  A
N19         Mn44   2.178       .  S
N20          C24   1.348       .  A
N21          N22   1.318       .  A
N21         Mn33   2.192       .  S
N22          C23   1.350       .  A
C23         C304   1.469       .  S
C24         C300   1.480       .  S
N25          N31   1.316       .  A
N25          N26   1.323       .  A
N25         Mn55   2.222       .  S
N26          C34   1.357       .  A
N27          N28   1.333       .  A
N27          N29   1.316       .  A
N27         Mn33   2.252   1_565  S
N28          C35   1.363       .  A
N29          N30   1.316       .  A
N29         Mn55   2.188       .  S
N30          C35   1.347       .  A
N31          N32   1.318       .  A
N31         Mn33   2.185   1_565  S
N32          C34   1.348       .  A
Mn33        Cl57   2.561       .  S
C34         C333   1.472       .  S
C35         C337   1.487       .  S
N36          N37   1.326       .  A
N36          N42   1.316       .  A
N36         Mn44   2.234       .  S
N37          C45   1.360       .  A
N38          N40   1.315       .  A
N38          N39   1.330       .  A
N38         Mn56   2.239       .  S
N39          C46   1.361       .  A
N40          N41   1.317       .  A
N40         Mn44   2.184       .  S
N41          C46   1.347       .  A
N42          N43   1.316       .  A
N42         Mn56   2.178       .  S
N43          C45   1.347       .  A
Mn44        Cl57   2.542       .  S
C45         C309   1.474       .  S
C46         C312   1.481       .  S
N47          N48   1.321       .  A
N47          N53   1.316   1_565  A
N47         Mn55   2.224       .  S
N48          C58   1.357       .  A
N49          N50   1.324       .  A
N49          N51   1.315   1_545  A
N49         Mn56   2.229       .  S
N50          C59   1.357   1_545  A
N51          N52   1.321       .  A
N51         Mn55   2.186       .  S
N52          C59   1.350       .  A
N53          N54   1.316       .  A
N53         Mn56   2.176       .  S
N54          C58   1.347   1_545  A
Mn55        Cl57   2.539   1_565  S
Mn56        Cl57   2.556       .  S
C58         C325   1.462       .  S
C59         C321   1.480       .  S
N60          C61   1.355       .  A
N60         C403   1.361       .  A
N60         C313   1.451       .  S
C61         C296   1.479       .  S
C61         C401   1.387       .  A
C62          C63   1.368       .  A
C62         C400   1.388   1_554  A
C62          H65   1.082       .  S
C63          C64   1.377       .  A
C63          H66   1.082       .  S
C64         N399   1.364   1_554  A
C64         C308   1.475       .  S
N67          C68   1.354       .  A
N67         C410   1.351   1_554  A
N67         C301   1.443       .  S
C68         C292   1.473       .  S
C68         C408   1.385   1_554  A
C69          C70   1.375       .  A
C69         C407   1.387       .  A
C69          H72   1.082       .  S
C70          C71   1.384       .  A
C70          H73   1.082       .  S
C71         N406   1.356       .  A
C71         C305   1.485       .  S
N74          N75   1.319       .  A
N74          N80   1.316       .  A
N74        Mn103   2.197   1_455  S
N75          C82   1.350       .  A
N76          N78   1.314       .  A
N76          N77   1.318       .  A
N76         Mn92   2.202       .  S
N77          C83   1.356       .  A
N78          N79   1.316       .  A
N78        Mn103   2.169   1_455  S
N79          C83   1.346       .  A
N80          N81   1.326       .  A
N80         Mn92   2.226       .  S
N81          C82   1.357       .  A
C82         C288   1.479       .  S
C83         C284   1.454       .  S
N84          N90   1.315       .  A
N84          N85   1.322       .  A
N84        Mn114   2.209       .  S
N85          C93   1.352       .  A
N86          N87   1.318       .  A
N86          N88   1.318       .  A
N86         Mn92   2.194       .  S
N87          C94   1.349       .  A
N88          N89   1.322       .  A
N88        Mn114   2.218       .  S
N89          C94   1.356       .  A
N90          N91   1.327       .  A
N90         Mn92   2.226       .  S
N91          C93   1.359       .  A
Mn92       Cl116   2.559       .  S
C93         C277   1.490       .  S
C94         C280   1.469       .  S
N95          N96   1.321       .  A
N95         N101   1.312       .  A
N95        Mn103   2.200       .  S
N96         C104   1.353       .  A
N97          N99   1.316       .  A
N97          N98   1.322       .  A
N97        Mn115   2.212       .  S
N98         C105   1.356       .  A
N99         N100   1.319       .  A
N99        Mn103   2.196       .  S
N100        C105   1.350       .  A
N101        N102   1.320       .  A
N101       Mn115   2.191       .  S
N102        C104   1.351       .  A
Mn103      Cl116   2.534   1_655  S
C104        C261   1.469       .  S
C105        C264   1.472       .  S
N106        N107   1.323       .  A
N106        N112   1.317       .  A
N106       Mn114   2.215   1_655  S
N107        C117   1.354       .  A
N108        N109   1.319       .  A
N108        N110   1.316       .  A
N108       Mn115   2.194       .  S
N109        C118   1.351       .  A
N110        N111   1.317       .  A
N110       Mn114   2.192   1_655  S
N111        C118   1.351       .  A
N112        N113   1.319       .  A
N112       Mn115   2.194       .  S
N113        C117   1.350       .  A
Mn114      Cl116   2.536       .  S
Mn115      Cl116   2.557   1_655  S
C117        C272   1.474       .  S
C118        C268   1.462       .  S
N119        C123   1.360       .  A
N119        C120   1.362       .  A
N119        C620   1.439       .  S
C120        C256   1.501       .  S
C120        C121   1.388       .  A
C121        C122   1.380       .  A
C121        H124   1.081       .  S
C122        C123   1.380       .  A
C122        H125   1.082       .  S
C123        C276   1.491       .  S
N126        C130   1.353       .  A
N126        C127   1.354       .  A
N126        C612   1.448       .  S
C127        C293   1.473       .  S
C127        C128   1.386       .  A
C128        C129   1.373       .  A
C128        H131   1.082       .  S
C129        C130   1.379       .  A
C129        H132   1.082       .  S
C130        C269   1.462       .  S
N133        C137   1.353       .  A
N133        C134   1.356       .  A
N133        C604   1.442       .  S
C134        C592   1.487       .  S
C134        C135   1.388       .  A
C135        C136   1.378       .  A
C135        H138   1.081       .  S
C136        C137   1.383       .  A
C136        H139   1.082       .  S
C137        C260   1.477       .  S
N140        C483   1.356       .  A
N140        C480   1.358       .  A
N140        C289   1.447       .  S
C141        N479   1.355       .  A
C141        C317   1.469       .  S
C141        C142   1.386       .  A
C142        C143   1.368       .  A
C142        H145   1.082       .  S
C143        C144   1.382       .  A
C143        H146   1.082       .  S
C144        N479   1.350       .  A
C144        C285   1.462       .  S
N147        N148   1.325       .  A
N147        N153   1.316       .  A
N147       Mn176   2.230       .  S
N148        C155   1.358       .  A
N149        N151   1.315       .  A
N149        N150   1.317       .  A
N149       Mn165   2.194       .  S
N150        C156   1.349       .  A
N151        N152   1.322       .  A
N151       Mn176   2.201       .  S
N152        C156   1.354       .  A
N153        N154   1.318       .  A
N153       Mn165   2.186       .  S
N154        C155   1.349       .  A
C155        C249   1.478   1_554  S
C156        C245   1.465       .  S
N157        N163   1.315       .  A
N157        N158   1.327       .  A
N157       Mn187   2.233       .  S
N158        C166   1.359       .  A
N159        N160   1.320       .  A
N159        N161   1.316       .  A
N159       Mn165   2.208       .  S
N160        C167   1.352       .  A
N161        N162   1.321       .  A
N161       Mn187   2.199       .  S
N162        C167   1.354       .  A
N163        N164   1.318       .  A
N163       Mn165   2.185       .  S
N164        C166   1.348       .  A
Mn165      Cl189   2.530       .  S
C166        C236   1.478       .  S
C167        C240   1.474   1_554  S
N168        N169   1.324       .  A
N168        N174   1.316       .  A
N168       Mn176   2.219       .  S
N169        C177   1.356       .  A
N170        N172   1.317       .  A
N170        N171   1.323       .  A
N170       Mn188   2.218       .  S
N171        C178   1.355       .  A
N172        N173   1.320       .  A
N172       Mn176   2.205       .  S
N173        C178   1.351       .  A
N174        N175   1.322       .  A
N174       Mn188   2.209       .  S
N175        C177   1.352       .  A
Mn176      Cl189   2.567       .  S
C177        C221   1.482       .  S
C178        C225   1.474   1_554  S
N179        N180   1.325       .  A
N179        N185   1.318       .  A
N179       Mn187   2.238       .  S
N180        C190   1.359       .  A
N181        N182   1.320       .  A
N181        N183   1.315       .  A
N181       Mn188   2.213       .  S
N182        C191   1.356       .  A
N183        N184   1.317       .  A
N183       Mn187   2.172       .  S
N184        C191   1.345       .  A
N185        N186   1.323       .  A
N185       Mn188   2.205       .  S
N186        C190   1.351       .  A
Mn187      Cl189   2.566       .  S
Mn188      Cl189   2.536       .  S
C190        C233   1.487   1_554  S
C191        C228   1.459       .  S
N192        C196   1.355       .  A
N192        C193   1.352       .  A
N192        C587   1.446       .  S
C193        C297   1.475       .  S
C193        C194   1.384       .  A
C194        C195   1.379       .  A
C194        H197   1.082       .  S
C195        C196   1.382       .  A
C195        H198   1.082       .  S
C196        C244   1.477       .  S
N199        C203   1.358       .  A
N199        C200   1.358       .  A
N199        C563   1.438       .  S
C200        C257   1.495       .  S
C200        C201   1.388       .  A
C201        C202   1.379       .  A
C201        H204   1.081       .  S
C202        C203   1.380       .  A
C202        H205   1.082       .  S
C203        C220   1.485       .  S
N206        C210   1.357       .  A
N206        C207   1.362       .  A
N206        C580   1.442       .  S
C207        C252   1.495       .  S
C207        C208   1.389       .  A
C208        C209   1.378       .  A
C208        H211   1.081       .  S
C209        C210   1.379       .  A
C209        H212   1.082       .  S
C210        C237   1.484       .  S
N213        C217   1.353       .  A
N213        C214   1.359       .  A
N213        C571   1.452       .  S
C214        C329   1.480       .  S
C214        C215   1.387       .  A
C215        C216   1.372       .  A
C215        H218   1.081       .  S
C216        C217   1.383       .  A
C216        H219   1.082       .  S
C217        C229   1.471       .  S
C220        C221   1.343       .  D
C220        H222   1.087       .  S
C221        H223   1.086       .  S
C224        N538   1.439       .  S
C224        C225   1.341       .  D
C224        H226   1.086       .  S
C225        H227   1.087       .  S
C228        C229   1.332       .  D
C228        H230   1.086       .  S
C229        H231   1.087       .  S
C232        N552   1.452       .  S
C232        C233   1.355       .  D
C232        H234   1.086       .  S
C233        H235   1.086       .  S
C236        C237   1.341       .  D
C236        H238   1.087       .  S
C237        H239   1.086       .  S
C240        C241   1.341       .  D
C240        H242   1.087       .  S
C241        N545   1.437       .  S
C241        H582   1.086       .  S
H243        C580   1.086       .  S
C244        C245   1.342       .  D
C244        H246   1.086       .  S
C245        H247   1.086       .  S
C248        N531   1.446       .  S
C248        C249   1.350       .  D
C248        H589   1.086       .  S
C249        H251   1.086       .  S
H250        C587   1.087       .  S
C252        C253   1.353       .  D
C252        H593   1.083       .  S
C253        C473   1.492       .  S
C253        H255   1.084       .  S
H254        C591   1.083   1_554  S
C256        C596   1.356   1_554  D
C256        H258   1.084   1_554  S
C257        C595   1.350       .  D
C257        H259   1.084       .  S
C260        C261   1.341       .  D
C260        H262   1.086       .  S
C261        H263   1.087       .  S
C264        C265   1.338       .  D
C264        H266   1.086       .  S
C265        N472   1.438       .  S
C265        H606   1.087       .  S
H267        C604   1.086       .  S
C268        C269   1.338       .  D
C268        H270   1.087       .  S
C269        H271   1.086       .  S
C272        C273   1.346       .  D
C272        H274   1.086       .  S
C273        N465   1.443       .  S
C273        H614   1.087       .  S
H275        C612   1.086       .  S
C276        C277   1.344       .  D
C276        H278   1.086       .  S
C277        H279   1.087       .  S
C280        C281   1.336       .  D
C280        H282   1.086       .  S
C281        N458   1.435       .  S
C281        H622   1.086       .  S
H283        C620   1.086       .  S
C284        C285   1.331       .  D
C284        H286   1.088       .  S
C285        H287   1.087       .  S
C288        C289   1.345       .  D
C288        H290   1.086       .  S
C289        H291   1.086       .  S
C292        C293   1.345       .  D
C292        H294   1.085       .  S
C293        H295   1.085       .  S
C296        C297   1.345       .  D
C296        H298   1.085       .  S
C297        H299   1.084       .  S
C300        C301   1.350       .  D
C300        H302   1.086       .  S
C301        H303   1.086       .  S
C304        C305   1.340       .  D
C304        H306   1.086       .  S
C305        H307   1.086       .  S
C308        C309   1.337       .  D
C308        H310   1.086       .  S
C309        H311   1.087       .  S
C312        C313   1.344       .  D
C312        H314   1.086       .  S
C313        H315   1.086       .  S
C316        C317   1.346       .  D
C316        H318   1.084       .  S
C317        H658   1.084   1_554  S
H319        C656   1.085       .  S
C320        C321   1.352       .  D
C320        H322   1.086       .  S
C321        H323   1.086       .  S
C324        C325   1.335       .  D
C324        H326   1.087       .  S
C325        H327   1.087       .  S
C328        C329   1.354       .  D
C328        H330   1.083       .  S
C329        H670   1.083       .  S
H331        C668   1.083       .  S
C332        C333   1.338       .  D
C332        H334   1.086       .  S
C333        H335   1.087       .  S
C336        C337   1.349       .  D
C336        H338   1.085       .  S
C337        H339   1.085       .  S
N340        C341   1.364       .  A
N340        C675   1.459       .  S
C341        C667   1.484       .  S
C342        C343   1.370       .  A
C342        H345   1.081       .  S
C343        C344   1.378       .  A
C343        H346   1.083       .  S
C344        C671   1.472       .  S
N347        C348   1.356       .  A
N347        C659   1.446       .  S
C348        C655   1.478       .  S
C349        C350   1.369       .  A
C349        H352   1.082       .  S
C350        C351   1.382       .  A
C350        H353   1.082       .  S
C351        C663   1.459       .  S
N354        N355   1.321       .  A
N354        N360   1.317       .  A
N354       Mn383   2.224       .  S
N355        C362   1.357       .  A
N356        N358   1.315       .  A
N356        N357   1.325       .  A
N356       Mn372   2.230       .  S
N357        C363   1.358       .  A
N358        N359   1.318       .  A
N358       Mn383   2.178       .  S
N359        C363   1.348       .  A
N360        N361   1.315       .  A
N360       Mn372   2.174       .  S
N361        C362   1.346       .  A
C362        C643   1.457       .  S
C363        C639   1.477       .  S
N364        N370   1.316       .  A
N364        N365   1.322       .  A
N364       Mn394   2.214       .  S
N365        C373   1.356       .  A
N366        N367   1.332       .  A
N366        N368   1.314       .  A
N366       Mn372   2.246   1_565  S
N367        C374   1.362       .  A
N368        N369   1.318       .  A
N368       Mn394   2.195       .  S
N369        C374   1.349       .  A
N370        N371   1.317       .  A
N370       Mn372   2.185   1_565  S
N371        C373   1.348       .  A
Mn372      Cl396   2.558       .  S
C373        C672   1.467       .  S
C374        C676   1.491       .  S
N375        N376   1.325       .  A
N375        N381   1.316       .  A
N375       Mn383   2.227       .  S
N376        C384   1.358       .  A
N377        N379   1.314       .  A
N377        N378   1.330       .  A
N377       Mn395   2.240       .  S
N378        C385   1.361       .  A
N379        N380   1.318       .  A
N379       Mn383   2.192       .  S
N380        C385   1.349       .  A
N381        N382   1.316       .  A
N381       Mn395   2.177       .  S
N382        C384   1.347       .  A
Mn383      Cl396   2.538       .  S
C384        C648   1.468       .  S
C385        C651   1.487       .  S
N386        N387   1.317       .  A
N386        N392   1.316   1_565  A
N386       Mn394   2.210       .  S
N387        C397   1.355       .  A
N388        N389   1.325       .  A
N388        N390   1.315   1_545  A
N388       Mn395   2.231       .  S
N389        C398   1.358   1_545  A
N390        N391   1.320       .  A
N390       Mn394   2.184       .  S
N391        C398   1.349       .  A
N392        N393   1.315       .  A
N392       Mn395   2.167       .  S
N393        C397   1.346   1_545  A
Mn394      Cl396   2.535   1_565  S
Mn395      Cl396   2.558       .  S
C397        C664   1.451       .  S
C398        C660   1.481       .  S
N399        C400   1.362       .  A
N399        C652   1.454       .  S
C400        C635   1.488       .  S
C401        C402   1.372       .  A
C401        H404   1.082       .  S
C402        C403   1.379       .  A
C402        H405   1.083       .  S
C403        C647   1.474       .  S
N406        C407   1.358       .  A
N406        C640   1.443       .  S
C407        C631   1.492       .  S
C408        C409   1.371       .  A
C408        H411   1.082       .  S
C409        C410   1.384       .  A
C409        H412   1.082       .  S
C410        C644   1.468       .  S
N413        N414   1.321       .  A
N413        N419   1.316       .  A
N413       Mn442   2.212   1_455  S
N414        C421   1.353       .  A
N415        N417   1.315       .  A
N415        N416   1.319       .  A
N415       Mn431   2.197       .  S
N416        C422   1.353       .  A
N417        N418   1.321       .  A
N417       Mn442   2.212   1_455  S
N418        C422   1.354       .  A
N419        N420   1.325       .  A
N419       Mn431   2.217       .  S
N420        C421   1.355       .  A
C421        C627   1.480   1_556  S
C422        C623   1.469       .  S
N423        N429   1.314       .  A
N423        N424   1.320       .  A
N423       Mn453   2.199       .  S
N424        C432   1.350       .  A
N425        N426   1.318       .  A
N425        N427   1.318       .  A
N425       Mn431   2.199       .  S
N426        C433   1.349       .  A
N427        N428   1.323       .  A
N427       Mn453   2.216       .  S
N428        C433   1.357       .  A
N429        N430   1.325       .  A
N429       Mn431   2.219       .  S
N430        C432   1.357       .  A
Mn431      Cl455   2.551       .  S
C432        C616   1.477       .  S
C433        C619   1.471   1_556  S
N434        N435   1.323       .  A
N434        N440   1.315       .  A
N434       Mn442   2.209       .  S
N435        C443   1.355       .  A
N436        N438   1.318       .  A
N436        N437   1.322       .  A
N436       Mn454   2.212       .  S
N437        C444   1.353       .  A
N438        N439   1.322       .  A
N438       Mn442   2.220       .  S
N439        C444   1.354       .  A
N440        N441   1.322       .  A
N440       Mn454   2.210       .  S
N441        C443   1.352       .  A
Mn442      Cl455   2.548   1_655  S
C443        C600   1.476       .  S
C444        C603   1.479   1_556  S
N445        N446   1.321       .  A
N445        N451   1.316       .  A
N445       Mn453   2.207   1_655  S
N446        C456   1.352   1_556  A
N447        N448   1.320       .  A
N447        N449   1.315       .  A
N447       Mn454   2.204       .  S
N448        C457   1.353       .  A
N449        N450   1.320       .  A
N449       Mn453   2.213   1_655  S
N450        C457   1.355       .  A
N451        N452   1.324       .  A
N451       Mn454   2.212       .  S
N452        C456   1.355   1_556  A
Mn453      Cl455   2.549       .  S
Mn454      Cl455   2.559   1_655  S
C456        C611   1.480       .  S
C457        C607   1.465       .  S
N458        C462   1.351       .  A
N458        C459   1.357       .  A
C459        C595   1.492       .  S
C459        C460   1.388       .  A
C460        C461   1.384       .  A
C460        H463   1.081       .  S
C461        C462   1.384       .  A
C461        H464   1.082       .  S
C462        C615   1.487       .  S
N465        C469   1.356       .  A
N465        C466   1.354       .  A
C466        C632   1.488       .  S
C466        C467   1.386       .  A
C467        C468   1.387       .  A
C467        H470   1.082       .  S
C468        C469   1.386       .  A
C468        H471   1.080       .  S
C469        C608   1.490       .  S
N472        C476   1.354       .  A
N472        C473   1.357       .  A
C473        C474   1.387       .  A
C474        C475   1.383       .  A
C474        H477   1.081       .  S
C475        C476   1.385       .  A
C475        H478   1.082       .  S
C476        C599   1.487       .  S
N479        C628   1.449       .  S
C480        C656   1.480       .  S
C480        C481   1.386       .  A
C481        C482   1.373       .  A
C481        H484   1.081       .  S
C482        C483   1.382       .  A
C482        H485   1.082       .  S
C483        C624   1.475       .  S
N486        N487   1.320       .  A
N486        N492   1.315       .  A
N486       Mn515   2.204       .  S
N487        C494   1.351       .  A
N488        N490   1.314       .  A
N488        N489   1.322       .  A
N488       Mn504   2.216       .  S
N489        C495   1.358       .  A
N490        N491   1.316       .  A
N490       Mn515   2.182       .  S
N491        C495   1.349       .  A
N492        N493   1.323       .  A
N492       Mn504   2.204       .  S
N493        C494   1.354       .  A
C494        C588   1.475       .  S
C495        C584   1.462       .  S
N496        N502   1.315       .  A
N496        N497   1.323       .  A
N496       Mn526   2.216       .  S
N497        C505   1.355       .  A
N498        N499   1.321       .  A
N498        N500   1.318       .  A
N498       Mn504   2.209       .  S
N499        C506   1.352       .  A
N500        N501   1.323       .  A
N500       Mn526   2.222       .  S
N501        C506   1.356       .  A
N502        N503   1.319       .  A
N502       Mn504   2.193       .  S
N503        C505   1.351       .  A
Mn504      Cl528   2.556       .  S
C505        C575   1.470       .  S
C506        C579   1.479       .  S
N507        N508   1.322       .  A
N507        N513   1.315       .  A
N507       Mn515   2.219       .  S
N508        C516   1.354       .  A
N509        N511   1.316       .  A
N509        N510   1.323       .  A
N509       Mn527   2.222       .  S
N510        C517   1.357       .  A
N511        N512   1.317       .  A
N511       Mn515   2.184       .  S
N512        C517   1.348       .  A
N513        N514   1.326       .  A
N513       Mn527   2.215       .  S
N514        C516   1.356       .  A
Mn515      Cl528   2.546       .  S
C516        C560   1.485       .  S
C517        C564   1.469       .  S
N518        N519   1.323       .  A
N518        N524   1.318       .  A
N518       Mn526   2.229       .  S
N519        C529   1.357       .  A
N520        N521   1.322       .  A
N520        N522   1.316       .  A
N520       Mn527   2.214       .  S
N521        C530   1.357       .  A
N522        N523   1.318       .  A
N522       Mn526   2.191       .  S
N523        C530   1.348       .  A
N524        N525   1.323       .  A
N524       Mn527   2.208       .  S
N525        C529   1.352       .  A
Mn526      Cl528   2.544       .  S
Mn527      Cl528   2.557       .  S
C529        C572   1.483       .  S
C530        C567   1.465       .  S
N531        C535   1.358       .  A
N531        C532   1.357       .  A
C532        C636   1.485       .  S
C532        C533   1.384       .  A
C533        C534   1.381       .  A
C533        H536   1.081       .  S
C534        C535   1.387       .  A
C534        H537   1.079       .  S
C535        C583   1.492       .  S
N538        C542   1.357       .  A
N538        C539   1.361       .  A
C539        C596   1.499       .  S
C539        C540   1.387       .  A
C540        C541   1.383       .  A
C540        H543   1.081       .  S
C541        C542   1.385       .  A
C541        H544   1.082       .  S
C542        C559   1.494       .  S
N545        C549   1.351       .  A
N545        C546   1.356       .  A
C546        C591   1.487       .  S
C546        C547   1.388       .  A
C547        C548   1.378       .  A
C547        H550   1.081       .  S
C548        C549   1.383       .  A
C548        H551   1.082       .  S
C549        C576   1.481       .  S
N552        C556   1.354       .  A
N552        C553   1.361       .  A
C553        C668   1.483       .  S
C553        C554   1.386       .  A
C554        C555   1.372       .  A
C554        H557   1.081       .  S
C555        C556   1.384       .  A
C555        H558   1.082       .  S
C556        C568   1.476       .  S
C559        C560   1.349       .  D
C559        H561   1.086       .  S
C560        H562   1.086       .  S
C563        C564   1.338       .  D
C563        H565   1.086       .  S
C564        H566   1.086       .  S
C567        C568   1.337       .  D
C567        H569   1.086       .  S
C568        H570   1.087       .  S
C571        C572   1.355       .  D
C571        H573   1.086       .  S
C572        H574   1.086       .  S
C575        C576   1.342       .  D
C575        H577   1.086       .  S
C576        H578   1.086       .  S
C579        C580   1.341       .  D
C579        H581   1.086       .  S
C583        C584   1.339       .  D
C583        H585   1.081       .  S
C584        H586   1.087       .  S
C587        C588   1.343       .  D
C588        H590   1.086       .  S
C591        C592   1.349   1_556  D
C592        H594   1.083   1_554  S
C595        H597   1.083       .  S
C596        H598   1.083   1_556  S
C599        C600   1.343       .  D
C599        H601   1.085       .  S
C600        H602   1.086       .  S
C603        C604   1.344       .  D
C603        H605   1.086       .  S
C607        C608   1.340       .  D
C607        H609   1.087       .  S
C608        H610   1.084       .  S
C611        C612   1.347       .  D
C611        H613   1.086       .  S
C615        C616   1.342       .  D
C615        H617   1.087       .  S
C616        H618   1.087       .  S
C619        C620   1.338       .  D
C619        H621   1.087       .  S
C623        C624   1.341       .  D
C623        H625   1.087       .  S
C624        H626   1.086       .  S
C627        C628   1.349       .  D
C627        H629   1.086       .  S
C628        H630   1.086       .  S
C631        C632   1.352       .  D
C631        H633   1.085       .  S
C632        H634   1.084       .  S
C635        C636   1.353       .  D
C635        H637   1.084       .  S
C636        H638   1.084       .  S
C639        C640   1.351       .  D
C639        H641   1.086       .  S
C640        H642   1.086       .  S
C643        C644   1.333       .  D
C643        H645   1.087       .  S
C644        H646   1.087       .  S
C647        C648   1.337       .  D
C647        H649   1.087       .  S
C648        H650   1.087       .  S
C651        C652   1.349       .  D
C651        H653   1.085       .  S
C652        H654   1.085       .  S
C655        C656   1.350       .  D
C655        H657   1.084       .  S
C659        C660   1.351       .  D
C659        H661   1.086       .  S
C660        H662   1.086       .  S
C663        C664   1.329       .  D
C663        H665   1.087       .  S
C664        H666   1.087       .  S
C667        C668   1.357       .  D
C667        H669   1.083       .  S
C671        C672   1.338       .  D
C671        H673   1.087       .  S
C672        H674   1.087       .  S
C675        C676   1.352       .  D
C675        H677   1.085       .  S
C676        H678   1.085       .  S
