geometry optimzed in LAMMPS
_audit_creation_date              2020-11-30 
_audit_creation_method            'lammps2cif' 
_symmetry_space_group_name_H-M    'P1' 
_symmetry_Int_Tables_number       1 
_symmetry_cell_setting            triclinic 
loop_ 
_symmetry_equiv_pos_as_xyz 
  x,y,z 
_cell_length_a                    45.25902657391981 
_cell_length_b                    45.263536030430515 
_cell_length_c                    26.14085776693824 
_cell_angle_alpha                 90.27386821709996 
_cell_angle_beta                  90.73534778848679 
_cell_angle_gamma                 91.52853560344828 
loop_ 
_atom_site_label 
_atom_site_type_symbol 
_atom_site_fract_x 
_atom_site_fract_y 
_atom_site_fract_z 
_atom_site_charge 
C1          C  0.37274878  0.25276395  0.25320176     0.03630
C2          C  0.35585970  0.22656866  0.24501019    -0.12520
C3          C  0.32497608  0.22715866  0.24444780     0.01130
C4          C  0.31101588  0.25378879  0.25414344    -0.11040
C5          C  0.32754046  0.27996793  0.26231979     0.03620
C6          C  0.35839593  0.27955903  0.26110605    -0.10470
H7          H  0.36660178  0.20582960  0.23817790     0.09220
H8          H  0.28707072  0.25425141  0.25455392     0.06750
H9          H  0.37105627  0.29997377  0.26700237     0.06590
C10         C  0.21287385  0.41117003  0.24090028     0.03630
C11         C  0.23973552  0.39682895  0.24921553    -0.12520
C12         C  0.24008123  0.36599476  0.25259892     0.01130
C13         C  0.21365136  0.34952739  0.24774512    -0.11040
C14         C  0.18681732  0.36336395  0.23928307     0.03620
C15         C  0.18640182  0.39422559  0.23577441    -0.10470
H16         H  0.26029265  0.40947692  0.25343521     0.09220
H17         H  0.21399409  0.32562079  0.25037490     0.06750
H18         H  0.16554803  0.40486892  0.22911078     0.06590
C19         C  0.20980794  0.08857269  0.24323690     0.03630
C20         C  0.23605455  0.10567159  0.23809259    -0.12520
C21         C  0.23560199  0.13650108  0.24289603     0.01130
C22         C  0.20894100  0.15017779  0.25297104    -0.11040
C23         C  0.18269905  0.13356562  0.25803201     0.03620
C24         C  0.18304816  0.10278384  0.25251253    -0.10470
H25         H  0.25677629  0.09516350  0.23037528     0.09220
H26         H  0.20856119  0.17405520  0.25652727     0.06750
H27         H  0.16260143  0.09002635  0.25627298     0.06590
C28         C  0.04978413  0.24789124  0.25462509     0.03630
C29         C  0.06664903  0.27370122  0.24452306    -0.12520
C30         C  0.09738961  0.27255753  0.24030026     0.01130
C31         C  0.11127048  0.24550037  0.24674393    -0.11040
C32         C  0.09479272  0.21963346  0.25689390     0.03620
C33         C  0.06409960  0.22097296  0.26182990    -0.10470
H34         H  0.05594445  0.29461222  0.23912295     0.09220
H35         H  0.13513065  0.24457502  0.24425616     0.06750
H36         H  0.05146223  0.20106797  0.27094673     0.06590
O37         O  0.43822442  0.20732792  0.00388592    -0.71280
O38         O  0.43551320  0.29129260  0.50527627    -0.71490
O39         O  0.43677755  0.24935338  0.43179590    -0.71350
O40         O  0.43700928  0.24909464  0.07713579    -0.71360
O41         O  0.48506587  0.25199681  0.07786215    -0.71320
O42         O  0.48482106  0.25257651  0.43274162    -0.71340
O43         O  0.48349148  0.29414827  0.00585932    -0.71280
O44         O  0.48619015  0.21039881  0.50416979    -0.71470
V45         V  0.43779975  0.24935919  0.50454338     1.35240
V46         V  0.48394125  0.25220566  0.50524392     1.35170
C47         C  0.46272874  0.19454806  0.50308276     0.77960
C48         C  0.45904594  0.30705086  0.50571420     0.78020
C49         C  0.46080223  0.25091653  0.40773795     0.77890
C50         C  0.46110509  0.25045850  0.10202203     0.77850
O51         O  0.41820124  0.22769910  0.25235895    -0.71280
O52         O  0.00169974  0.22535159  0.25713298    -0.71490
O53         O  0.45894535  0.22670412  0.32737862    -0.71350
O54         O  0.46068095  0.22641582  0.18213561    -0.71360
O55         O  0.46188520  0.27449515  0.18241123    -0.71320
O56         O  0.46325211  0.27468640  0.32759184    -0.71340
O57         O  0.00436345  0.27330694  0.25457108    -0.71280
O58         O  0.42074884  0.27567018  0.25535108    -0.71470
V59         V  0.45996227  0.22746950  0.25477481     1.35240
V60         V  0.46251249  0.27361690  0.25499544     1.35170
C61         C  0.40522208  0.25204589  0.25357509     0.77960
C62         C  0.01729848  0.24890325  0.25585197     0.78020
C63         C  0.46092208  0.25076301  0.35200998     0.77890
C64         C  0.46124907  0.25043925  0.15774503     0.77850
O65         O  0.17127739  0.02485990  0.98481620    -0.71280
O66         O  0.25533792  0.02194543  0.49361368    -0.71490
O67         O  0.21503239  0.02344688  0.41656661    -0.71350
O68         O  0.21159943  0.02367403  0.06154125    -0.71360
O69         O  0.20822485  0.47564949  0.06127405    -0.71320
O70         O  0.21204331  0.47540533  0.41613736    -0.71340
O71         O  0.25204026  0.47400748  0.99383975    -0.71280
O72         O  0.16837740  0.47691172  0.48415012    -0.71470
V73         V  0.21324200  0.02255689  0.48902631     1.35320
V74         V  0.21027305  0.47643952  0.48872789     1.35170
C75         C  0.15547294  0.50133512  0.48286860     0.77960
C76         C  0.26794832  0.49737739  0.49704664     0.78020
C77         C  0.21366225  0.49943349  0.39181886     0.77890
C78         C  0.20962398  0.49971846  0.08594329     0.77850
O79         O  0.18673487  0.04059421  0.24116668    -0.71280
O80         O  0.18816490  0.45693397  0.23794210    -0.71490
O81         O  0.18863009  0.99797053  0.31199417    -0.71350
O82         O  0.18635375  0.49933031  0.16666180    -0.71360
O83         O  0.23442657  0.00044365  0.16586132    -0.71320
O84         O  0.23664705  0.50142191  0.31105774    -0.71340
O85         O  0.23616766  0.45904570  0.23909975    -0.71280
O86         O  0.23466986  0.04282132  0.23807990    -0.71470
V87         V  0.18840146  0.99878259  0.23936037     1.35240
V88         V  0.23454889  0.00088698  0.23844340     1.35170
C89         C  0.21043099  0.05600993  0.24038161     0.77960
C90         C  0.21239490  0.44370289  0.23894705     0.78020
C91         C  0.21300939  0.99954936  0.33606240     0.77890
C92         C  0.21007850  0.99983428  0.14171389     0.77850
C93         C  0.45809418  0.33971573  0.50611273     0.03630
C94         C  0.48346377  0.35682542  0.49386830    -0.12520
C95         C  0.48264688  0.38777277  0.49368484     0.01130
C96         C  0.45659023  0.40166814  0.50767739    -0.11040
C97         C  0.43133733  0.38498354  0.52135018     0.03620
C98         C  0.43197946  0.35401879  0.51931609    -0.10470
H99         H  0.00372430  0.34616110  0.48360568     0.09220
H100        H  0.45606618  0.42560239  0.50849493     0.06750
H101        H  0.41241514  0.34115652  0.52951498     0.06590
C102        C  0.12275450  0.50224793  0.97925374     0.03630
C103        C  0.10550167  0.47575781  0.97686392    -0.12520
C104        C  0.07446527  0.47648048  0.97426965     0.01130
C105        C  0.06093176  0.50396542  0.97327621    -0.11040
C106        C  0.07762316  0.03039809  0.97457205     0.03620
C107        C  0.10852308  0.02956986  0.97787713    -0.10470
H108        H  0.11620285  0.45468070  0.97628379     0.09220
H109        H  0.03701285  0.50490900  0.97179349     0.06750
H110        H  0.12131084  0.05014354  0.97905823     0.06590
C111        C  0.46410532  0.16202002  0.99846053     0.03630
C112        C  0.49104616  0.14915989  0.98557681    -0.12520
C113        C  0.49195000  0.11902517  0.97419802     0.01130
C114        C  0.46592966  0.10183550  0.47574463    -0.11040
C115        C  0.43991095  0.11296196  0.49640605     0.03620
C116        C  0.43875765  0.14361802  0.50569036    -0.10470
H117        H  0.01118726  0.16254138  0.98325625     0.09220
H118        H  0.46682588  0.07875384  0.46488830     0.06750
H119        H  0.41863432  0.15306159  0.51957371     0.06590
C120        C  0.30007787  0.49581767  0.50862188     0.03630
C121        C  0.31165129  0.46911916  0.52656131    -0.12520
C122        C  0.34094021  0.46793365  0.54437811     0.01130
C123        C  0.35691931  0.49481315  0.54971135    -0.11040
C124        C  0.34782615  0.02116582  0.52629660     0.03620
C125        C  0.31896988  0.02104911  0.50486650    -0.10470
H126        H  0.29750608  0.44959997  0.52809509     0.09220
H127        H  0.37760912  0.49464430  0.57021849     0.06750
H128        H  0.31084211  0.04018274  0.48527939     0.06590
C129        C  0.38542256  0.09840007  0.00473782    -0.11770
C130        C  0.41546015  0.09152568  0.51031759     0.05240
C131        C  0.42230182  0.06281683  0.52683546    -0.07050
C132        C  0.40040567  0.04067620  0.52562389    -0.07800
C133        C  0.37001838  0.04687589  0.52185828    -0.02350
C134        C  0.36266603  0.07701335  0.01394960     0.04470
N135        N  0.33286725  0.08679338  0.01761120     0.66970
H136        H  0.37952471  0.12066477  0.99464831     0.15870
H137        H  0.40801884  0.01842542  0.52895942     0.15580
N138        N  0.45105388  0.05603511  0.54732902     0.74680
O139        O  0.31755951  0.07966041  0.05588770    -0.38770
O140        O  0.32359325  0.10636227  0.48759335    -0.38710
O141        O  0.46441325  0.07417603  0.07696156    -0.39420
O142        O  0.46135456  0.03059311  0.54156505    -0.39480
C143        C  0.03842907  0.10051132  0.01070424    -0.11770
C144        C  0.02014692  0.10372577  0.96736778     0.05240
C145        C  0.02477747  0.08611276  0.42359444    -0.07050
C146        C  0.04558092  0.06372327  0.42626759    -0.07800
C147        C  0.06172798  0.05848152  0.97136470    -0.02350
C148        C  0.05894544  0.07774656  0.01378596     0.04470
N149        N  0.07469387  0.07334160  0.06132720     0.66970
H150        H  0.03442722  0.11377916  0.04441922     0.15870
H151        H  0.04825112  0.04918448  0.39368180     0.15580
N152        N  0.50751334  0.08971176  0.37741588     0.74680
O153        O  0.08044792  0.09504789  0.09065005    -0.38770
O154        O  0.08000353  0.04766164  0.07699703    -0.38710
O155        O  0.99677746  0.11440651  0.36656726    -0.39420
O156        O  0.50467551  0.06881028  0.34541116    -0.39480
C157        C  0.38123510  0.43918128  0.58623685    -0.11770
C158        C  0.35723801  0.43951818  0.55127788     0.05240
C159        C  0.35479140  0.41612275  0.01497875    -0.07050
C160        C  0.37844693  0.39704827  0.00837697    -0.07800
C161        C  0.40444158  0.40035210  0.53775734    -0.02350
C162        C  0.40524693  0.42061297  0.57909629     0.04470
N163        N  0.43069943  0.42359824  0.61256491     0.66970
H164        H  0.38236762  0.45501517  0.61741572     0.15870
H165        H  0.37716664  0.38067039  0.97798815     0.15580
N166        N  0.32910568  0.41185194  0.98316872     0.74680
O167        O  0.43736966  0.44822530  0.63312764    -0.38770
O168        O  0.44568512  0.40138765  0.12400042    -0.38710
O169        O  0.33131407  0.41429273  0.43529839    -0.39420
O170        O  0.30678447  0.39843922  0.00120738    -0.39480
C171        C  0.03392041  0.40559472  0.01357585    -0.11770
C172        C  0.00916866  0.40604588  0.48070189     0.05240
C173        C  0.00865721  0.42664492  0.44016178    -0.07050
C174        C  0.03169369  0.44792513  0.43665952    -0.07800
C175        C  0.05518051  0.44924258  0.47241170    -0.02350
C176        C  0.05690382  0.42687880  0.00972601     0.04470
N177        N  0.08036655  0.42694340  0.04682027     0.66970
H178        H  0.03452282  0.38975736  0.04452143     0.15870
H179        H  0.03080730  0.46440364  0.40678002     0.15580
N180        N  0.48476099  0.42670343  0.40316761     0.74680
O181        O  0.07563599  0.43580747  0.09173347    -0.38770
O182        O  0.10309067  0.41224543  0.53817599    -0.38710
O183        O  0.47879128  0.45008307  0.87943309    -0.39420
O184        O  0.47138129  0.40290629  0.39045281    -0.39480
C185        C  0.13397049  0.14921177  0.22646668    -0.11770
C186        C  0.15499852  0.14934579  0.26628986     0.05240
C187        C  0.15226231  0.16915287  0.30788639    -0.07050
C188        C  0.13009977  0.19020474  0.30594352    -0.07800
C189        C  0.11070403  0.19182773  0.26384499    -0.02350
C190        C  0.11178975  0.17030168  0.22452484     0.04470
N191        N  0.09247983  0.17105578  0.18042878     0.66970
H192        H  0.13619295  0.13395059  0.19475646     0.15870
H193        H  0.12897306  0.20665641  0.33607166     0.15580
N194        N  0.17264832  0.16913818  0.35073626     0.74680
O195        O  0.10183068  0.16366918  0.13702896    -0.38770
O196        O  0.06521001  0.17509492  0.18560252    -0.38710
O197        O  0.17715947  0.19226196  0.37723010    -0.39420
O198        O  0.18461219  0.14554857  0.36461474    -0.39480
C199        C  0.11423707  0.32299265  0.26674385    -0.11770
C200        C  0.11562155  0.29961636  0.23141836     0.05240
C201        C  0.13753079  0.30040000  0.19336274    -0.07050
C202        C  0.15940781  0.32282910  0.19526974    -0.07800
C203        C  0.15977532  0.34458202  0.23369183    -0.02350
C204        C  0.13626409  0.34544347  0.26880393     0.04470
N205        N  0.13540265  0.36730834  0.30889238     0.66970
H206        H  0.09738833  0.32233294  0.29583970     0.15870
H207        H  0.17700793  0.32283725  0.16752763     0.15580
N208        N  0.13827669  0.27827598  0.15360390     0.74680
O209        O  0.11084221  0.37619386  0.32435572    -0.38770
O210        O  0.15862188  0.37502048  0.33327156    -0.38710
O211        O  0.11458293  0.26666925  0.13592709    -0.39420
O212        O  0.16242322  0.27207691  0.13294199    -0.39480
C213        C  0.31213132  0.32803731  0.22882593    -0.11770
C214        C  0.31169580  0.30769314  0.26911084     0.05240
C215        C  0.29117540  0.31064677  0.30896332    -0.07050
C216        C  0.26934550  0.33184315  0.30421602    -0.07800
C217        C  0.26764336  0.34995893  0.26093698    -0.02350
C218        C  0.29002207  0.34901794  0.22370288     0.04470
N219        N  0.28935730  0.36707454  0.17853123     0.66970
H220        H  0.32787356  0.32549337  0.19831103     0.15870
H221        H  0.25252043  0.33329246  0.33319664     0.15580
N222        N  0.29138975  0.29143432  0.35283771     0.74680
O223        O  0.31326702  0.37583814  0.15855949    -0.38770
O224        O  0.26536910  0.37105941  0.15469588    -0.38710
O225        O  0.31511705  0.28012652  0.36809271    -0.39420
O226        O  0.26836416  0.28755487  0.37901997    -0.39480
C227        C  0.30928697  0.17619708  0.26828512    -0.11770
C228        C  0.30667496  0.20014515  0.23477179     0.05240
C229        C  0.28346431  0.20003479  0.19807534    -0.07050
C230        C  0.26154534  0.17770208  0.19992673    -0.07800
C231        C  0.26244194  0.15537344  0.23690045    -0.02350
C232        C  0.28724993  0.15379213  0.27019533     0.04470
N233        N  0.28950002  0.13118728  0.30846064     0.66970
H234        H  0.32717721  0.17633528  0.29624865     0.15870
H235        H  0.24298047  0.17820554  0.17336166     0.15580
N236        N  0.28141291  0.22283847  0.15998005     0.74680
O237        O  0.31450938  0.12152242  0.32075666    -0.38770
O238        O  0.26730743  0.12347004  0.33445322    -0.38710
O239        O  0.30450181  0.23470259  0.14167506    -0.39420
O240        O  0.25658577  0.22953612  0.14145176    -0.39480
C241        C  0.37274878  0.25276395  0.75320176     0.03630
C242        C  0.35585970  0.22656866  0.74501019    -0.12520
C243        C  0.32497608  0.22715866  0.74444780     0.01130
C244        C  0.31101588  0.25378879  0.75414343    -0.11040
C245        C  0.32754046  0.27996793  0.76231978     0.03620
C246        C  0.35839593  0.27955903  0.76110605    -0.10470
H247        H  0.36660178  0.20582960  0.73817791     0.09220
H248        H  0.28707072  0.25425141  0.75455391     0.06750
H249        H  0.37105627  0.29997377  0.76700236     0.06590
C250        C  0.21287385  0.41117003  0.74090027     0.03630
C251        C  0.23973553  0.39682895  0.74921552    -0.12520
C252        C  0.24008123  0.36599476  0.75259891     0.01130
C253        C  0.21365137  0.34952739  0.74774510    -0.11040
C254        C  0.18681732  0.36336395  0.73928305     0.03620
C255        C  0.18640182  0.39422559  0.73577440    -0.10470
H256        H  0.26029265  0.40947692  0.75343520     0.09220
H257        H  0.21399409  0.32562079  0.75037488     0.06750
H258        H  0.16554803  0.40486892  0.72911078     0.06590
C259        C  0.20980794  0.08857269  0.74323690     0.03630
C260        C  0.23605455  0.10567159  0.73809260    -0.12520
C261        C  0.23560200  0.13650108  0.74289603     0.01130
C262        C  0.20894100  0.15017779  0.75297105    -0.11040
C263        C  0.18269905  0.13356562  0.75803201     0.03620
C264        C  0.18304816  0.10278383  0.75251253    -0.10470
H265        H  0.25677629  0.09516350  0.73037528     0.09220
H266        H  0.20856120  0.17405520  0.75652727     0.06750
H267        H  0.16260143  0.09002635  0.75627298     0.06590
C268        C  0.04978413  0.24789124  0.75462508     0.03630
C269        C  0.06664904  0.27370122  0.74452305    -0.12520
C270        C  0.09738961  0.27255753  0.74030024     0.01130
C271        C  0.11127048  0.24550037  0.74674392    -0.11040
C272        C  0.09479272  0.21963346  0.75689389     0.03620
C273        C  0.06409960  0.22097296  0.76182989    -0.10470
H274        H  0.05594445  0.29461222  0.73912294     0.09220
H275        H  0.13513065  0.24457502  0.74425615     0.06750
H276        H  0.05146223  0.20106797  0.77094673     0.06590
O277        O  0.43822442  0.20732793  0.50388592    -0.71280
O278        O  0.43551321  0.29129260  0.00527627    -0.71490
O279        O  0.43677755  0.24935338  0.93179590    -0.71350
O280        O  0.43700927  0.24909464  0.57713579    -0.71360
O281        O  0.48506587  0.25199681  0.57786215    -0.71320
O282        O  0.48482106  0.25257651  0.93274162    -0.71340
O283        O  0.48349147  0.29414827  0.50585932    -0.71280
O284        O  0.48619015  0.21039881  0.00416979    -0.71470
V285        V  0.43779975  0.24935918  0.00454338     1.35240
V286        V  0.48394125  0.25220566  0.00524393     1.35170
C287        C  0.46272874  0.19454805  0.00308275     0.77960
C288        C  0.45904594  0.30705086  0.00571420     0.78020
C289        C  0.46080223  0.25091653  0.90773795     0.77890
C290        C  0.46110509  0.25045851  0.60202203     0.77850
O291        O  0.41820125  0.22769910  0.75235895    -0.71280
O292        O  0.00169974  0.22535159  0.75713298    -0.71490
O293        O  0.45894535  0.22670412  0.82737862    -0.71350
O294        O  0.46068095  0.22641582  0.68213560    -0.71360
O295        O  0.46188520  0.27449515  0.68241123    -0.71320
O296        O  0.46325211  0.27468640  0.82759184    -0.71340
O297        O  0.00436345  0.27330694  0.75457108    -0.71280
O298        O  0.42074884  0.27567018  0.75535108    -0.71470
V299        V  0.45996227  0.22746950  0.75477481     1.35240
V300        V  0.46251249  0.27361690  0.75499544     1.35170
C301        C  0.40522209  0.25204589  0.75357509     0.77960
C302        C  0.01729848  0.24890325  0.75585197     0.78020
C303        C  0.46092208  0.25076301  0.85200998     0.77890
C304        C  0.46124907  0.25043925  0.65774503     0.77850
O305        O  0.17127739  0.02485991  0.48481620    -0.71280
O306        O  0.25533791  0.02194543  0.99361368    -0.71490
O307        O  0.21503239  0.02344688  0.91656661    -0.71350
O308        O  0.21159943  0.02367403  0.56154125    -0.71360
O309        O  0.20822485  0.47564950  0.56127405    -0.71320
O310        O  0.21204332  0.47540533  0.91613736    -0.71340
O311        O  0.25204025  0.47400748  0.49383975    -0.71280
O312        O  0.16837740  0.47691172  0.98415012    -0.71470
V313        V  0.21324200  0.02255688  0.98902631     1.35320
V314        V  0.21027305  0.47643952  0.98872789     1.35170
C315        C  0.15547294  0.50133512  0.98286859     0.77960
C316        C  0.26794832  0.49737739  0.99704664     0.78020
C317        C  0.21366226  0.49943349  0.89181886     0.77890
C318        C  0.20962398  0.49971847  0.58594329     0.77850
O319        O  0.18673487  0.04059421  0.74116668    -0.71280
O320        O  0.18816490  0.45693397  0.73794209    -0.71490
O321        O  0.18863009  0.99797053  0.81199417    -0.71350
O322        O  0.18635375  0.49933031  0.66666180    -0.71360
O323        O  0.23442657  0.00044365  0.66586132    -0.71320
O324        O  0.23664705  0.50142191  0.81105774    -0.71340
O325        O  0.23616766  0.45904570  0.73909975    -0.71280
O326        O  0.23466986  0.04282132  0.73807990    -0.71470
V327        V  0.18840146  0.99878259  0.73936037     1.35240
V328        V  0.23454889  0.00088698  0.73844340     1.35170
C329        C  0.21043099  0.05600993  0.74038162     0.77960
C330        C  0.21239490  0.44370289  0.73894704     0.78020
C331        C  0.21300939  0.99954935  0.83606240     0.77890
C332        C  0.21007850  0.99983428  0.64171389     0.77850
C333        C  0.45809418  0.33971573  0.00611274     0.03630
C334        C  0.48346377  0.35682541  0.99386831    -0.12520
C335        C  0.48264688  0.38777277  0.99368485     0.01130
C336        C  0.45659023  0.40166814  0.00767740    -0.11040
C337        C  0.43133733  0.38498354  0.02135018     0.03620
C338        C  0.43197947  0.35401878  0.01931609    -0.10470
H339        H  0.00372431  0.34616109  0.98360569     0.09220
H340        H  0.45606618  0.42560238  0.00849493     0.06750
H341        H  0.41241514  0.34115652  0.02951498     0.06590
C342        C  0.12275450  0.50224794  0.47925374     0.03630
C343        C  0.10550167  0.47575782  0.47686393    -0.12520
C344        C  0.07446526  0.47648049  0.47426966     0.01130
C345        C  0.06093176  0.50396543  0.47327622    -0.11040
C346        C  0.07762316  0.03039809  0.47457208     0.03620
C347        C  0.10852308  0.02956987  0.47787715    -0.10470
H348        H  0.11620285  0.45468071  0.47628380     0.09220
H349        H  0.03701285  0.50490901  0.47179350     0.06750
H350        H  0.12131084  0.05014354  0.47905825     0.06590
C351        C  0.46410532  0.16202003  0.49846054     0.03630
C352        C  0.49104616  0.14915989  0.48557683    -0.12520
C353        C  0.49195000  0.11902517  0.47419804     0.01130
C354        C  0.46592966  0.10183549  0.97574460    -0.11040
C355        C  0.43991095  0.11296196  0.99640604     0.03620
C356        C  0.43875765  0.14361802  0.00569035    -0.10470
H357        H  0.01118726  0.16254138  0.48325626     0.09220
H358        H  0.46682588  0.07875384  0.96488827     0.06750
H359        H  0.41863432  0.15306159  0.01957370     0.06590
C360        C  0.30007787  0.49581767  0.00862187     0.03630
C361        C  0.31165129  0.46911916  0.02656131    -0.12520
C362        C  0.34094021  0.46793365  0.04437810     0.01130
C363        C  0.35691931  0.49481315  0.04971133    -0.11040
C364        C  0.34782615  0.02116581  0.02629659     0.03620
C365        C  0.31896988  0.02104911  0.00486649    -0.10470
H366        H  0.29750609  0.44959997  0.02809509     0.09220
H367        H  0.37760913  0.49464430  0.07021846     0.06750
H368        H  0.31084211  0.04018274  0.98527939     0.06590
C369        C  0.38542256  0.09840007  0.50473783    -0.11770
C370        C  0.41546015  0.09152567  0.01031757     0.05240
C371        C  0.42230182  0.06281682  0.02683544    -0.07050
C372        C  0.40040567  0.04067620  0.02562387    -0.07800
C373        C  0.37001838  0.04687589  0.02185827    -0.02350
C374        C  0.36266603  0.07701336  0.51394961     0.04470
N375        N  0.33286725  0.08679338  0.51761120     0.66970
H376        H  0.37952471  0.12066478  0.49464831     0.15870
H377        H  0.40801884  0.01842542  0.02895939     0.15580
N378        N  0.45105388  0.05603511  0.04732899     0.74680
O379        O  0.31755951  0.07966041  0.55588770    -0.38770
O380        O  0.32359325  0.10636227  0.98759336    -0.38710
O381        O  0.46441324  0.07417604  0.57696159    -0.39420
O382        O  0.46135457  0.03059310  0.04156501    -0.39480
C383        C  0.03842907  0.10051132  0.51070426    -0.11770
C384        C  0.02014692  0.10372577  0.46736779     0.05240
C385        C  0.02477747  0.08611276  0.92359442    -0.07050
C386        C  0.04558092  0.06372327  0.92626756    -0.07800
C387        C  0.06172798  0.05848153  0.47136472    -0.02350
C388        C  0.05894544  0.07774657  0.51378598     0.04470
N389        N  0.07469387  0.07334162  0.56132723     0.66970
H390        H  0.03442722  0.11377917  0.54441924     0.15870
H391        H  0.04825112  0.04918447  0.89368177     0.15580
N392        N  0.50751334  0.08971176  0.87741587     0.74680
O393        O  0.08044792  0.09504790  0.59065008    -0.38770
O394        O  0.08000354  0.04766166  0.57699706    -0.38710
O395        O  0.99677746  0.11440651  0.86656725    -0.39420
O396        O  0.50467551  0.06881028  0.84541114    -0.39480
C397        C  0.38123510  0.43918127  0.08623684    -0.11770
C398        C  0.35723801  0.43951818  0.05127787     0.05240
C399        C  0.35479139  0.41612275  0.51497878    -0.07050
C400        C  0.37844692  0.39704827  0.50837699    -0.07800
C401        C  0.40444158  0.40035210  0.03775734    -0.02350
C402        C  0.40524693  0.42061297  0.07909629     0.04470
N403        N  0.43069943  0.42359823  0.11256493     0.66970
H404        H  0.38236761  0.45501517  0.11741571     0.15870
H405        H  0.37716663  0.38067039  0.47798818     0.15580
N406        N  0.32910567  0.41185192  0.48316877     0.74680
O407        O  0.43736965  0.44822528  0.13312767    -0.38770
O408        O  0.44568513  0.40138766  0.62400041    -0.38710
O409        O  0.33131410  0.41429277  0.93529834    -0.39420
O410        O  0.30678445  0.39843921  0.50120747    -0.39480
C411        C  0.03392042  0.40559472  0.51357582    -0.11770
C412        C  0.00916867  0.40604588  0.98070190     0.05240
C413        C  0.00865722  0.42664491  0.94016178    -0.07050
C414        C  0.03169371  0.44792512  0.93665951    -0.07800
C415        C  0.05518051  0.44924257  0.97241170    -0.02350
C416        C  0.05690382  0.42687880  0.50972599     0.04470
N417        N  0.08036657  0.42694339  0.54682023     0.66970
H418        H  0.03452283  0.38975735  0.54452139     0.15870
H419        H  0.03080732  0.46440362  0.90678000     0.15580
N420        N  0.48476100  0.42670342  0.90316760     0.74680
O421        O  0.07563603  0.43580750  0.59173341    -0.38770
O422        O  0.10309068  0.41224548  0.03817603    -0.38710
O423        O  0.47879126  0.45008309  0.37943312    -0.39420
O424        O  0.47138130  0.40290627  0.89045281    -0.39480
C425        C  0.13397049  0.14921177  0.72646667    -0.11770
C426        C  0.15499852  0.14934579  0.76628986     0.05240
C427        C  0.15226231  0.16915288  0.80788638    -0.07050
C428        C  0.13009977  0.19020474  0.80594352    -0.07800
C429        C  0.11070403  0.19182773  0.76384499    -0.02350
C430        C  0.11178975  0.17030168  0.72452484     0.04470
N431        N  0.09247984  0.17105578  0.68042877     0.66970
H432        H  0.13619295  0.13395059  0.69475646     0.15870
H433        H  0.12897306  0.20665641  0.83607166     0.15580
N434        N  0.17264832  0.16913818  0.85073626     0.74680
O435        O  0.10183068  0.16366917  0.63702896    -0.38770
O436        O  0.06521002  0.17509492  0.68560251    -0.38710
O437        O  0.17715947  0.19226196  0.87723010    -0.39420
O438        O  0.18461219  0.14554857  0.86461474    -0.39480
C439        C  0.11423708  0.32299265  0.76674384    -0.11770
C440        C  0.11562155  0.29961636  0.73141835     0.05240
C441        C  0.13753079  0.30040000  0.69336273    -0.07050
C442        C  0.15940781  0.32282910  0.69526973    -0.07800
C443        C  0.15977532  0.34458202  0.73369182    -0.02350
C444        C  0.13626409  0.34544347  0.76880392     0.04470
N445        N  0.13540265  0.36730834  0.80889237     0.66970
H446        H  0.09738833  0.32233294  0.79583969     0.15870
H447        H  0.17700793  0.32283725  0.66752761     0.15580
N448        N  0.13827668  0.27827598  0.65360389     0.74680
O449        O  0.11084222  0.37619385  0.82435571    -0.38770
O450        O  0.15862188  0.37502048  0.83327155    -0.38710
O451        O  0.11458293  0.26666925  0.63592707    -0.39420
O452        O  0.16242322  0.27207691  0.63294198    -0.39480
C453        C  0.31213132  0.32803731  0.72882592    -0.11770
C454        C  0.31169580  0.30769314  0.76911083     0.05240
C455        C  0.29117540  0.31064677  0.80896331    -0.07050
C456        C  0.26934550  0.33184315  0.80421600    -0.07800
C457        C  0.26764336  0.34995893  0.76093697    -0.02350
C458        C  0.29002207  0.34901793  0.72370287     0.04470
N459        N  0.28935730  0.36707454  0.67853122     0.66970
H460        H  0.32787356  0.32549337  0.69831103     0.15870
H461        H  0.25252043  0.33329246  0.83319662     0.15580
N462        N  0.29138975  0.29143432  0.85283770     0.74680
O463        O  0.31326702  0.37583814  0.65855948    -0.38770
O464        O  0.26536911  0.37105941  0.65469586    -0.38710
O465        O  0.31511705  0.28012652  0.86809271    -0.39420
O466        O  0.26836416  0.28755487  0.87901996    -0.39480
C467        C  0.30928697  0.17619708  0.76828513    -0.11770
C468        C  0.30667497  0.20014515  0.73477179     0.05240
C469        C  0.28346432  0.20003478  0.69807533    -0.07050
C470        C  0.26154535  0.17770208  0.69992673    -0.07800
C471        C  0.26244194  0.15537344  0.73690045    -0.02350
C472        C  0.28724993  0.15379213  0.77019534     0.04470
N473        N  0.28950002  0.13118728  0.80846065     0.66970
H474        H  0.32717722  0.17633529  0.79624866     0.15870
H475        H  0.24298047  0.17820554  0.67336166     0.15580
N476        N  0.28141291  0.22283846  0.65998005     0.74680
O477        O  0.31450938  0.12152242  0.82075668    -0.38770
O478        O  0.26730743  0.12347004  0.83445323    -0.38710
O479        O  0.30450181  0.23470258  0.64167506    -0.39420
O480        O  0.25658578  0.22953611  0.64145174    -0.39480
C481        C  0.37274853  0.75276267  0.25320189     0.03630
C482        C  0.35585959  0.72656724  0.24501065    -0.12520
C483        C  0.32497595  0.72715708  0.24444860     0.01130
C484        C  0.31101563  0.75378714  0.25414435    -0.11040
C485        C  0.32754009  0.77996637  0.26232044     0.03620
C486        C  0.35839553  0.77955764  0.26110633    -0.10470
H487        H  0.36660179  0.70582827  0.23817826     0.09220
H488        H  0.28707047  0.75424965  0.25455493     0.06750
H489        H  0.37105575  0.79997248  0.26700237     0.06590
C490        C  0.21287546  0.91117012  0.24089861     0.03630
C491        C  0.23973684  0.89682859  0.24921425    -0.12520
C492        C  0.24008194  0.86599439  0.25259806     0.01130
C493        C  0.21365179  0.84952748  0.24774429    -0.11040
C494        C  0.18681803  0.86336449  0.23928194     0.03620
C495        C  0.18640313  0.89422612  0.23577283    -0.10470
H496        H  0.26029416  0.90947623  0.25343394     0.09220
H497        H  0.21399405  0.82562087  0.25037437     0.06750
H498        H  0.16554955  0.90486979  0.22910899     0.06590
C499        C  0.20980607  0.58857264  0.24323873     0.03630
C500        C  0.23605294  0.60567111  0.23809415    -0.12520
C501        C  0.23560094  0.63650061  0.24289741     0.01130
C502        C  0.20894022  0.65017780  0.25297248    -0.11040
C503        C  0.18269801  0.63356607  0.25803380     0.03620
C504        C  0.18304657  0.60278423  0.25251451    -0.10470
H505        H  0.25677449  0.59516268  0.23037674     0.09220
H506        H  0.20856084  0.67405523  0.25652848     0.06750
H507        H  0.16259966  0.59002706  0.25627519     0.06590
C508        C  0.04978401  0.74789273  0.25462535     0.03630
C509        C  0.06664881  0.77370277  0.24452319    -0.12520
C510        C  0.09738943  0.77255919  0.24030071     0.01130
C511        C  0.11127041  0.74550212  0.24674494    -0.11040
C512        C  0.09479273  0.71963520  0.25689512     0.03620
C513        C  0.06409962  0.72097459  0.26183080    -0.10470
H514        H  0.05594412  0.79461368  0.23912261     0.09220
H515        H  0.13513059  0.74457685  0.24425727     0.06750
H516        H  0.05146233  0.70106959  0.27094787     0.06590
O517        O  0.43822310  0.70732860  0.00388512    -0.71280
O518        O  0.43551396  0.79129345  0.50527590    -0.71490
O519        O  0.43677727  0.74935428  0.43179536    -0.71350
O520        O  0.43700901  0.74909534  0.07713528    -0.71360
O521        O  0.48506563  0.75199645  0.07786160    -0.71320
O522        O  0.48482083  0.75257612  0.43274109    -0.71340
O523        O  0.48349227  0.79414802  0.00585873    -0.71280
O524        O  0.48618887  0.71039845  0.50416920    -0.71470
V525        V  0.43779947  0.74935995  0.50454285     1.35240
V526        V  0.48394100  0.75220535  0.50524338     1.35170
C527        C  0.46272713  0.69454819  0.50308182     0.77960
C528        C  0.45904705  0.80705119  0.50571366     0.78020
C529        C  0.46080197  0.75091678  0.40773742     0.77890
C530        C  0.46110485  0.75045865  0.10202150     0.77850
O531        O  0.41820139  0.72769849  0.25235847    -0.71280
O532        O  0.00169994  0.72535247  0.25713261    -0.71490
O533        O  0.45894554  0.72670428  0.32737816    -0.71350
O534        O  0.46068119  0.72641596  0.18213512    -0.71360
O535        O  0.46188457  0.77449528  0.18241070    -0.71320
O536        O  0.46325148  0.77468662  0.32759128    -0.71340
O537        O  0.00436293  0.77330784  0.25457056    -0.71280
O538        O  0.42074823  0.77566958  0.25535058    -0.71470
V539        V  0.45996245  0.72746964  0.25477435     1.35240
V540        V  0.46251191  0.77361706  0.25499490     1.35170
C541        C  0.40522184  0.75204505  0.25357474     0.77960
C542        C  0.01729833  0.74890436  0.25585170     0.78020
C543        C  0.46092185  0.75076321  0.35200947     0.77890
C544        C  0.46124885  0.75043938  0.15774451     0.77850
O545        O  0.17127477  0.52485992  0.98481798    -0.71280
O546        O  0.25533528  0.52194543  0.49361548    -0.71490
O547        O  0.21502982  0.52344685  0.41656850    -0.71350
O548        O  0.21159683  0.52367403  0.06154315    -0.71360
O549        O  0.20822743  0.97564949  0.06127213    -0.71320
O550        O  0.21204597  0.97540536  0.41613542    -0.71340
O551        O  0.25204290  0.97400748  0.99383800    -0.71280
O552        O  0.16838010  0.97691170  0.48414818    -0.71470
V553        V  0.21323938  0.52255688  0.48902819     1.35320
V554        V  0.21027571  0.97643953  0.48872597     1.35170
C555        C  0.15547560  0.00133508  0.48286692     0.77960
C556        C  0.26795095  0.99737739  0.49704516     0.78020
C557        C  0.21366477  0.99943354  0.39181694     0.77890
C558        C  0.20962648  0.99971847  0.08594137     0.77850
O559        O  0.18673257  0.54059419  0.24116870    -0.71280
O560        O  0.18816705  0.95693419  0.23794021    -0.71490
O561        O  0.18862774  0.49797038  0.31199605    -0.71350
O562        O  0.18635611  0.99933039  0.16665981    -0.71360
O563        O  0.23442421  0.50044362  0.16586320    -0.71320
O564        O  0.23664940  0.00142196  0.31105576    -0.71340
O565        O  0.23616982  0.95904566  0.23909786    -0.71280
O566        O  0.23466756  0.54282118  0.23808183    -0.71470
V567        V  0.18839916  0.49878247  0.23936231     1.35240
V568        V  0.23454658  0.50088693  0.23844533     1.35170
C569        C  0.21042876  0.55600985  0.24038357     0.77960
C570        C  0.21239695  0.94370298  0.23894520     0.78020
C571        C  0.21300700  0.49954927  0.33606433     0.77890
C572        C  0.21007611  0.49983425  0.14171582     0.77850
C573        C  0.45809597  0.83971612  0.50611201     0.03630
C574        C  0.48346578  0.85682539  0.49386713    -0.12520
C575        C  0.48264932  0.88777279  0.49368332     0.01130
C576        C  0.45659291  0.90166860  0.50767586    -0.11040
C577        C  0.43133989  0.88498442  0.52134945     0.03620
C578        C  0.43198158  0.85401964  0.51931569    -0.10470
H579        H  0.00372612  0.84616072  0.48360453     0.09220
H580        H  0.45606922  0.92560287  0.50849313     0.06750
H581        H  0.41241717  0.84115769  0.52951521     0.06590
C582        C  0.12275715  0.00224779  0.97925279     0.03630
C583        C  0.10550450  0.97575758  0.97686247    -0.12520
C584        C  0.07446808  0.97648004  0.97426956     0.01130
C585        C  0.06093435  0.00396489  0.97327751    -0.11040
C586        C  0.07762073  0.53039849  0.97457043     0.03620
C587        C  0.10852060  0.52957010  0.97787656    -0.10470
H588        H  0.11620583  0.95468060  0.97628070     0.09220
H589        H  0.03701541  0.00490826  0.97179538     0.06750
H590        H  0.12130848  0.55014371  0.97905737     0.06590
C591        C  0.46410316  0.66202015  0.99845862     0.03630
C592        C  0.49104383  0.64915994  0.98557421    -0.12520
C593        C  0.49194743  0.61902539  0.97419421     0.01130
C594        C  0.46592695  0.60183589  0.47574021    -0.11040
C595        C  0.43990845  0.61296222  0.49640273     0.03620
C596        C  0.43875536  0.64361823  0.50568813    -0.10470
H597        H  0.01118506  0.66254125  0.98325414     0.09220
H598        H  0.46682299  0.57875437  0.46488295     0.06750
H599        H  0.41863218  0.65306178  0.51957214     0.06590
C600        C  0.30008039  0.99581768  0.50862143     0.03630
C601        C  0.31165359  0.96911932  0.52656207    -0.12520
C602        C  0.34094226  0.96793391  0.54438052     0.01130
C603        C  0.35692096  0.99481365  0.54971435    -0.11040
C604        C  0.34782407  0.52116559  0.52629497     0.03620
C605        C  0.31896735  0.52104913  0.50486662    -0.10470
H606        H  0.29750820  0.94960034  0.52809588     0.09220
H607        H  0.37761030  0.99464539  0.57022309     0.06750
H608        H  0.31083926  0.54018291  0.48528043     0.06590
C609        C  0.38542014  0.59840015  0.00473642    -0.11770
C610        C  0.41545781  0.59152572  0.51031452     0.05240
C611        C  0.42229972  0.56281668  0.52683114    -0.07050
C612        C  0.40040357  0.54067602  0.52561999    -0.07800
C613        C  0.37001623  0.54687574  0.52185611    -0.02350
C614        C  0.36266376  0.57701329  0.01394867     0.04470
N615        N  0.33286506  0.58679327  0.01761208     0.66970
H616        H  0.37952212  0.62066493  0.99464799     0.15870
H617        H  0.40801679  0.51842531  0.52895453     0.15580
N618        N  0.45105206  0.55603473  0.54732318     0.74680
O619        O  0.31755802  0.57966005  0.05588930    -0.38770
O620        O  0.32359050  0.60636233  0.48759511    -0.38710
O621        O  0.46441176  0.57417521  0.07695607    -0.39420
O622        O  0.46135279  0.53059289  0.54155741    -0.39480
C623        C  0.03842641  0.60051175  0.01070100    -0.11770
C624        C  0.02014432  0.60372589  0.96736437     0.05240
C625        C  0.02477508  0.58611273  0.42359129    -0.07050
C626        C  0.04557869  0.56372341  0.42626488    -0.07800
C627        C  0.06172567  0.55848196  0.97136223    -0.02350
C628        C  0.05894287  0.57774713  0.01378322     0.04470
N629        N  0.07469107  0.57334238  0.06132473     0.66970
H630        H  0.03442441  0.61377972  0.04441578     0.15870
H631        H  0.04824905  0.54918447  0.39367933     0.15580
N632        N  0.50751106  0.58971147  0.37741252     0.74680
O633        O  0.08044520  0.59504883  0.09064715    -0.38770
O634        O  0.08000025  0.54766246  0.07699533    -0.38710
O635        O  0.99677505  0.61440610  0.36656354    -0.39420
O636        O  0.50467347  0.56880986  0.34540800    -0.39480
C637        C  0.38123868  0.93918265  0.58623774    -0.11770
C638        C  0.35724036  0.93951850  0.55128108     0.05240
C639        C  0.35479288  0.91612199  0.01498406    -0.07050
C640        C  0.37844878  0.89704813  0.00838057    -0.07800
C641        C  0.40444452  0.90035334  0.53775766    -0.02350
C642        C  0.40525080  0.92061497  0.57909544     0.04470
N643        N  0.43070436  0.92360152  0.61256134     0.66970
H644        H  0.38237180  0.95501672  0.61741628     0.15870
H645        H  0.37716759  0.88066925  0.97799342     0.15580
N646        N  0.32910524  0.91184839  0.98317963     0.74680
O647        O  0.43737523  0.94822936  0.63312064    -0.38770
O648        O  0.44569046  0.90139137  0.12399785    -0.38710
O649        O  0.33131084  0.91428417  0.43530804    -0.39420
O650        O  0.30678519  0.89843743  0.00122608    -0.39480
C651        C  0.03392267  0.90559466  0.01357572    -0.11770
C652        C  0.00917140  0.90604557  0.48070070     0.05240
C653        C  0.00866055  0.92664430  0.44016008    -0.07050
C654        C  0.03169718  0.94792440  0.43665818    -0.07800
C655        C  0.05518358  0.94924199  0.47241113    -0.02350
C656        C  0.05690628  0.92687855  0.00972617     0.04470
N657        N  0.08036855  0.92694333  0.04682141     0.66970
H658        H  0.03452457  0.88975757  0.04452176     0.15870
H659        H  0.03081117  0.96440280  0.40677847     0.15580
N660        N  0.48476473  0.92670270  0.40316512     0.74680
O661        O  0.07563560  0.93580172  0.09173713    -0.38770
O662        O  0.10309496  0.91224946  0.53817424    -0.38710
O663        O  0.47879549  0.95008218  0.87942975    -0.39420
O664        O  0.47138491  0.90290558  0.39045061    -0.39480
C665        C  0.13396959  0.64921279  0.22646880    -0.11770
C666        C  0.15499780  0.64934679  0.26629168     0.05240
C667        C  0.15226218  0.66915435  0.30788770    -0.07050
C668        C  0.13010001  0.69020659  0.30594461    -0.07800
C669        C  0.11070403  0.69182947  0.26384639    -0.02350
C670        C  0.11178921  0.67030306  0.22452679     0.04470
N671        N  0.09247914  0.67105712  0.18043096     0.66970
H672        H  0.13619161  0.63395131  0.19475890     0.15870
H673        H  0.12897372  0.70665855  0.33607236     0.15580
N674        N  0.17264840  0.66913969  0.35073727     0.74680
O675        O  0.10182999  0.66367099  0.13703092    -0.38770
O676        O  0.06520921  0.67509550  0.18560516    -0.38710
O677        O  0.17716018  0.69226368  0.37723029    -0.39420
O678        O  0.18461186  0.64554998  0.36461631    -0.39480
C679        C  0.11423730  0.82299432  0.26674360    -0.11770
C680        C  0.11562134  0.79961795  0.23141818     0.05240
C681        C  0.13753037  0.80040132  0.19336219    -0.07050
C682        C  0.15940769  0.82283014  0.19526885    -0.07800
C683        C  0.15977569  0.84458305  0.23369094    -0.02350
C684        C  0.13626461  0.84544487  0.26880334     0.04470
N685        N  0.13540362  0.86730982  0.30889172     0.66970
H686        H  0.09738870  0.82233482  0.29583971     0.15870
H687        H  0.17700769  0.82283802  0.16752652     0.15580
N688        N  0.13827582  0.77827721  0.15360344     0.74680
O689        O  0.11084337  0.87619559  0.32435548    -0.38770
O690        O  0.15862306  0.87502185  0.33327037    -0.38710
O691        O  0.11458186  0.76667057  0.13592728    -0.39420
O692        O  0.16242214  0.77207793  0.13294100    -0.39480
C693        C  0.31213158  0.82803589  0.22882640    -0.11770
C694        C  0.31169542  0.80769158  0.26911110     0.05240
C695        C  0.29117472  0.81064534  0.30896307    -0.07050
C696        C  0.26934520  0.83184208  0.30421546    -0.07800
C697        C  0.26764371  0.84995807  0.26093659    -0.02350
C698        C  0.29002269  0.84901685  0.22370301     0.04470
N699        N  0.28935852  0.86707357  0.17853148     0.66970
H700        H  0.32787406  0.82549187  0.19831191     0.15870
H701        H  0.25251994  0.83329156  0.33319571     0.15580
N702        N  0.29138844  0.79143275  0.35283730     0.74680
O703        O  0.31326852  0.87583702  0.15856051    -0.38770
O704        O  0.26537061  0.87105859  0.15469534    -0.38710
O705        O  0.31511547  0.78012467  0.36809293    -0.39420
O706        O  0.26836254  0.78755345  0.37901883    -0.39480
C707        C  0.30928650  0.67619562  0.26828612    -0.11770
C708        C  0.30667485  0.70014357  0.23477245     0.05240
C709        C  0.28346430  0.70003330  0.19807580    -0.07050
C710        C  0.26154501  0.67770091  0.19992742    -0.07800
C711        C  0.26244121  0.65537248  0.23690154    -0.02350
C712        C  0.28724914  0.65379096  0.27019653     0.04470
N713        N  0.28949889  0.63118623  0.30846211     0.66970
H714        H  0.32717667  0.67633375  0.29624978     0.15870
H715        H  0.24298018  0.67820450  0.17336227     0.15580
N716        N  0.28141327  0.72283685  0.15998020     0.74680
O717        O  0.31450809  0.62152107  0.32075834    -0.38770
O718        O  0.26730615  0.62346934  0.33445463    -0.38710
O719        O  0.30450235  0.73470076  0.14167549    -0.39420
O720        O  0.25658629  0.72953462  0.14145141    -0.39480
C721        C  0.37274853  0.75276267  0.75320189     0.03630
C722        C  0.35585960  0.72656724  0.74501065    -0.12520
C723        C  0.32497595  0.72715708  0.74444859     0.01130
C724        C  0.31101563  0.75378714  0.75414434    -0.11040
C725        C  0.32754010  0.77996637  0.76232043     0.03620
C726        C  0.35839553  0.77955764  0.76110633    -0.10470
H727        H  0.36660180  0.70582827  0.73817826     0.09220
H728        H  0.28707047  0.75424965  0.75455492     0.06750
H729        H  0.37105575  0.79997248  0.76700237     0.06590
C730        C  0.21287547  0.91117012  0.74089860     0.03630
C731        C  0.23973684  0.89682859  0.74921423    -0.12520
C732        C  0.24008194  0.86599439  0.75259805     0.01130
C733        C  0.21365179  0.84952748  0.74774427    -0.11040
C734        C  0.18681803  0.86336449  0.73928193     0.03620
C735        C  0.18640314  0.89422612  0.73577282    -0.10470
H736        H  0.26029416  0.90947623  0.75343393     0.09220
H737        H  0.21399405  0.82562086  0.75037435     0.06750
H738        H  0.16554955  0.90486979  0.72910898     0.06590
C739        C  0.20980607  0.58857264  0.74323873     0.03630
C740        C  0.23605295  0.60567111  0.73809415    -0.12520
C741        C  0.23560095  0.63650061  0.74289741     0.01130
C742        C  0.20894022  0.65017780  0.75297248    -0.11040
C743        C  0.18269801  0.63356607  0.75803380     0.03620
C744        C  0.18304657  0.60278423  0.75251451    -0.10470
H745        H  0.25677449  0.59516268  0.73037675     0.09220
H746        H  0.20856084  0.67405523  0.75652848     0.06750
H747        H  0.16259966  0.59002706  0.75627519     0.06590
C748        C  0.04978401  0.74789273  0.75462534     0.03630
C749        C  0.06664881  0.77370277  0.74452318    -0.12520
C750        C  0.09738943  0.77255919  0.74030070     0.01130
C751        C  0.11127041  0.74550212  0.74674493    -0.11040
C752        C  0.09479274  0.71963520  0.75689510     0.03620
C753        C  0.06409962  0.72097459  0.76183079    -0.10470
H754        H  0.05594412  0.79461368  0.73912260     0.09220
H755        H  0.13513059  0.74457685  0.74425725     0.06750
H756        H  0.05146234  0.70106959  0.77094787     0.06590
O757        O  0.43822310  0.70732860  0.50388513    -0.71280
O758        O  0.43551396  0.79129345  0.00527590    -0.71490
O759        O  0.43677727  0.74935428  0.93179536    -0.71350
O760        O  0.43700901  0.74909534  0.57713528    -0.71360
O761        O  0.48506563  0.75199645  0.57786160    -0.71320
O762        O  0.48482083  0.75257612  0.93274109    -0.71340
O763        O  0.48349227  0.79414802  0.50585873    -0.71280
O764        O  0.48618887  0.71039845  0.00416920    -0.71470
V765        V  0.43779947  0.74935995  0.00454285     1.35240
V766        V  0.48394101  0.75220535  0.00524338     1.35170
C767        C  0.46272713  0.69454819  0.00308181     0.77960
C768        C  0.45904705  0.80705119  0.00571366     0.78020
C769        C  0.46080198  0.75091678  0.90773742     0.77890
C770        C  0.46110485  0.75045865  0.60202150     0.77850
O771        O  0.41820139  0.72769849  0.75235847    -0.71280
O772        O  0.00169995  0.72535247  0.75713260    -0.71490
O773        O  0.45894554  0.72670428  0.82737816    -0.71350
O774        O  0.46068120  0.72641596  0.68213512    -0.71360
O775        O  0.46188457  0.77449528  0.68241070    -0.71320
O776        O  0.46325149  0.77468662  0.82759128    -0.71340
O777        O  0.00436293  0.77330784  0.75457056    -0.71280
O778        O  0.42074823  0.77566958  0.75535058    -0.71470
V779        V  0.45996246  0.72746965  0.75477434     1.35240
V780        V  0.46251191  0.77361706  0.75499490     1.35170
C781        C  0.40522185  0.75204505  0.75357474     0.77960
C782        C  0.01729833  0.74890435  0.75585170     0.78020
C783        C  0.46092185  0.75076321  0.85200947     0.77890
C784        C  0.46124885  0.75043938  0.65774451     0.77850
O785        O  0.17127477  0.52485992  0.48481799    -0.71280
O786        O  0.25533528  0.52194543  0.99361548    -0.71490
O787        O  0.21502983  0.52344685  0.91656850    -0.71350
O788        O  0.21159683  0.52367403  0.56154315    -0.71360
O789        O  0.20822743  0.97564949  0.56127213    -0.71320
O790        O  0.21204597  0.97540536  0.91613542    -0.71340
O791        O  0.25204290  0.97400748  0.49383800    -0.71280
O792        O  0.16838010  0.97691170  0.98414818    -0.71470
V793        V  0.21323938  0.52255688  0.98902819     1.35320
V794        V  0.21027571  0.97643952  0.98872597     1.35170
C795        C  0.15547560  0.00133508  0.98286691     0.77960
C796        C  0.26795094  0.99737739  0.99704516     0.78020
C797        C  0.21366477  0.99943354  0.89181694     0.77890
C798        C  0.20962648  0.99971847  0.58594137     0.77850
O799        O  0.18673258  0.54059419  0.74116870    -0.71280
O800        O  0.18816705  0.95693419  0.73794021    -0.71490
O801        O  0.18862774  0.49797038  0.81199606    -0.71350
O802        O  0.18635611  0.99933039  0.66665981    -0.71360
O803        O  0.23442421  0.50044362  0.66586320    -0.71320
O804        O  0.23664940  0.00142196  0.81105576    -0.71340
O805        O  0.23616982  0.95904566  0.73909786    -0.71280
O806        O  0.23466756  0.54282118  0.73808183    -0.71470
V807        V  0.18839916  0.49878247  0.73936231     1.35240
V808        V  0.23454658  0.50088693  0.73844533     1.35170
C809        C  0.21042876  0.55600985  0.74038357     0.77960
C810        C  0.21239695  0.94370297  0.73894520     0.78020
C811        C  0.21300701  0.49954927  0.83606433     0.77890
C812        C  0.21007611  0.49983426  0.64171582     0.77850
C813        C  0.45809597  0.83971612  0.00611201     0.03630
C814        C  0.48346578  0.85682539  0.99386714    -0.12520
C815        C  0.48264932  0.88777279  0.99368333     0.01130
C816        C  0.45659291  0.90166860  0.00767585    -0.11040
C817        C  0.43133989  0.88498442  0.02134945     0.03620
C818        C  0.43198158  0.85401964  0.01931569    -0.10470
H819        H  0.00372613  0.84616071  0.98360451     0.09220
H820        H  0.45606922  0.92560286  0.00849313     0.06750
H821        H  0.41241717  0.84115769  0.02951520     0.06590
C822        C  0.12275716  0.00224779  0.47925281     0.03630
C823        C  0.10550450  0.97575759  0.47686250    -0.12520
C824        C  0.07446808  0.97648004  0.47426960     0.01130
C825        C  0.06093435  0.00396490  0.47327755    -0.11040
C826        C  0.07762073  0.53039850  0.47457044     0.03620
C827        C  0.10852060  0.52957010  0.47787657    -0.10470
H828        H  0.11620583  0.95468060  0.47628072     0.09220
H829        H  0.03701541  0.00490827  0.47179543     0.06750
H830        H  0.12130848  0.55014371  0.47905738     0.06590
C831        C  0.46410316  0.66202015  0.49845863     0.03630
C832        C  0.49104382  0.64915994  0.48557423    -0.12520
C833        C  0.49194743  0.61902538  0.47419424     0.01130
C834        C  0.46592695  0.60183589  0.97574018    -0.11040
C835        C  0.43990845  0.61296221  0.99640270     0.03620
C836        C  0.43875536  0.64361823  0.00568811    -0.10470
H837        H  0.01118506  0.66254126  0.48325414     0.09220
H838        H  0.46682299  0.57875438  0.96488290     0.06750
H839        H  0.41863218  0.65306178  0.01957213     0.06590
C840        C  0.30008039  0.99581768  0.00862143     0.03630
C841        C  0.31165359  0.96911932  0.02656206    -0.12520
C842        C  0.34094226  0.96793391  0.04438051     0.01130
C843        C  0.35692096  0.99481365  0.04971434    -0.11040
C844        C  0.34782407  0.52116559  0.02629495     0.03620
C845        C  0.31896735  0.52104913  0.00486661    -0.10470
H846        H  0.29750820  0.94960034  0.02809588     0.09220
H847        H  0.37761030  0.99464539  0.07022307     0.06750
H848        H  0.31083926  0.54018291  0.98528043     0.06590
C849        C  0.38542013  0.59840015  0.50473644    -0.11770
C850        C  0.41545781  0.59152572  0.01031449     0.05240
C851        C  0.42229973  0.56281668  0.02683109    -0.07050
C852        C  0.40040357  0.54067602  0.02561995    -0.07800
C853        C  0.37001623  0.54687574  0.02185608    -0.02350
C854        C  0.36266376  0.57701329  0.51394868     0.04470
N855        N  0.33286505  0.58679327  0.51761208     0.66970
H856        H  0.37952211  0.62066493  0.49464800     0.15870
H857        H  0.40801680  0.51842530  0.02895448     0.15580
N858        N  0.45105207  0.55603472  0.04732313     0.74680
O859        O  0.31755801  0.57966005  0.55588930    -0.38770
O860        O  0.32359050  0.60636233  0.98759511    -0.38710
O861        O  0.46441175  0.57417523  0.57695612    -0.39420
O862        O  0.46135280  0.53059288  0.04155733    -0.39480
C863        C  0.03842641  0.60051176  0.51070101    -0.11770
C864        C  0.02014432  0.60372589  0.46736439     0.05240
C865        C  0.02477508  0.58611273  0.92359127    -0.07050
C866        C  0.04557869  0.56372340  0.92626487    -0.07800
C867        C  0.06172567  0.55848196  0.47136225    -0.02350
C868        C  0.05894287  0.57774714  0.51378323     0.04470
N869        N  0.07469107  0.57334239  0.56132475     0.66970
H870        H  0.03442441  0.61377973  0.54441580     0.15870
H871        H  0.04824905  0.54918446  0.89367932     0.15580
N872        N  0.50751107  0.58971147  0.87741250     0.74680
O873        O  0.08044520  0.59504884  0.59064717    -0.38770
O874        O  0.08000025  0.54766247  0.57699534    -0.38710
O875        O  0.99677506  0.61440609  0.86656352    -0.39420
O876        O  0.50467348  0.56880986  0.84540797    -0.39480
C877        C  0.38123867  0.93918264  0.08623773    -0.11770
C878        C  0.35724036  0.93951850  0.05128107     0.05240
C879        C  0.35479288  0.91612199  0.51498407    -0.07050
C880        C  0.37844878  0.89704813  0.50838058    -0.07800
C881        C  0.40444452  0.90035334  0.03775765    -0.02350
C882        C  0.40525079  0.92061497  0.07909544     0.04470
N883        N  0.43070436  0.92360151  0.11256134     0.66970
H884        H  0.38237180  0.95501671  0.11741627     0.15870
H885        H  0.37716759  0.88066924  0.47799343     0.15580
N886        N  0.32910523  0.91184839  0.48317966     0.74680
O887        O  0.43737522  0.94822936  0.13312065    -0.38770
O888        O  0.44569046  0.90139138  0.62399785    -0.38710
O889        O  0.33131085  0.91428419  0.93530802    -0.39420
O890        O  0.30678518  0.89843742  0.50122612    -0.39480
C891        C  0.03392266  0.90559467  0.51357575    -0.11770
C892        C  0.00917141  0.90604556  0.98070066     0.05240
C893        C  0.00866055  0.92664429  0.94016004    -0.07050
C894        C  0.03169718  0.94792439  0.93665814    -0.07800
C895        C  0.05518358  0.94924198  0.97241110    -0.02350
C896        C  0.05690628  0.92687856  0.50972621     0.04470
N897        N  0.08036855  0.92694333  0.54682144     0.66970
H898        H  0.03452456  0.88975758  0.54452179     0.15870
H899        H  0.03081117  0.96440279  0.90677843     0.15580
N900        N  0.48476474  0.92670268  0.90316510     0.74680
O901        O  0.07563559  0.93580169  0.59173718    -0.38770
O902        O  0.10309495  0.91224944  0.03817422    -0.38710
O903        O  0.47879547  0.95008220  0.37942979    -0.39420
O904        O  0.47138492  0.90290556  0.89045060    -0.39480
C905        C  0.13396959  0.64921278  0.72646879    -0.11770
C906        C  0.15499781  0.64934679  0.76629167     0.05240
C907        C  0.15226218  0.66915435  0.80788769    -0.07050
C908        C  0.13010001  0.69020660  0.80594460    -0.07800
C909        C  0.11070404  0.69182947  0.76384638    -0.02350
C910        C  0.11178921  0.67030306  0.72452678     0.04470
N911        N  0.09247914  0.67105712  0.68043095     0.66970
H912        H  0.13619162  0.63395131  0.69475890     0.15870
H913        H  0.12897373  0.70665855  0.83607235     0.15580
N914        N  0.17264840  0.66913970  0.85073726     0.74680
O915        O  0.10183000  0.66367098  0.63703091    -0.38770
O916        O  0.06520922  0.67509549  0.68560515    -0.38710
O917        O  0.17716018  0.69226368  0.87723029    -0.39420
O918        O  0.18461186  0.64554998  0.86461631    -0.39480
C919        C  0.11423730  0.82299432  0.76674359    -0.11770
C920        C  0.11562134  0.79961795  0.73141817     0.05240
C921        C  0.13753037  0.80040132  0.69336218    -0.07050
C922        C  0.15940768  0.82283014  0.69526883    -0.07800
C923        C  0.15977569  0.84458305  0.73369093    -0.02350
C924        C  0.13626461  0.84544487  0.76880333     0.04470
N925        N  0.13540362  0.86730982  0.80889171     0.66970
H926        H  0.09738870  0.82233482  0.79583970     0.15870
H927        H  0.17700769  0.82283802  0.66752650     0.15580
N928        N  0.13827582  0.77827721  0.65360342     0.74680
O929        O  0.11084337  0.87619559  0.82435547    -0.38770
O930        O  0.15862307  0.87502185  0.83327036    -0.38710
O931        O  0.11458186  0.76667057  0.63592726    -0.39420
O932        O  0.16242214  0.77207793  0.63294098    -0.39480
C933        C  0.31213158  0.82803589  0.72882639    -0.11770
C934        C  0.31169542  0.80769158  0.76911109     0.05240
C935        C  0.29117472  0.81064533  0.80896306    -0.07050
C936        C  0.26934520  0.83184208  0.80421545    -0.07800
C937        C  0.26764371  0.84995806  0.76093657    -0.02350
C938        C  0.29002269  0.84901685  0.72370300     0.04470
N939        N  0.28935852  0.86707357  0.67853147     0.66970
H940        H  0.32787406  0.82549186  0.69831190     0.15870
H941        H  0.25251994  0.83329155  0.83319569     0.15580
N942        N  0.29138843  0.79143275  0.85283729     0.74680
O943        O  0.31326852  0.87583702  0.65856050    -0.38770
O944        O  0.26537061  0.87105859  0.65469533    -0.38710
O945        O  0.31511547  0.78012467  0.86809292    -0.39420
O946        O  0.26836254  0.78755345  0.87901881    -0.39480
C947        C  0.30928650  0.67619562  0.76828612    -0.11770
C948        C  0.30667485  0.70014357  0.73477245     0.05240
C949        C  0.28346431  0.70003329  0.69807579    -0.07050
C950        C  0.26154502  0.67770091  0.69992742    -0.07800
C951        C  0.26244121  0.65537248  0.73690154    -0.02350
C952        C  0.28724915  0.65379096  0.77019653     0.04470
N953        N  0.28949889  0.63118624  0.80846213     0.66970
H954        H  0.32717667  0.67633375  0.79624978     0.15870
H955        H  0.24298019  0.67820450  0.67336227     0.15580
N956        N  0.28141328  0.72283684  0.65998019     0.74680
O957        O  0.31450809  0.62152108  0.82075836    -0.38770
O958        O  0.26730615  0.62346934  0.83445464    -0.38710
O959        O  0.30450236  0.73470075  0.64167548    -0.39420
O960        O  0.25658630  0.72953460  0.64145139    -0.39480
C961        C  0.87274878  0.25276395  0.25320175     0.03630
C962        C  0.85585970  0.22656866  0.24501019    -0.12520
C963        C  0.82497608  0.22715866  0.24444779     0.01130
C964        C  0.81101588  0.25378880  0.25414343    -0.11040
C965        C  0.82754046  0.27996794  0.26231978     0.03620
C966        C  0.85839593  0.27955903  0.26110605    -0.10470
H967        H  0.86660178  0.20582961  0.23817790     0.09220
H968        H  0.78707072  0.25425142  0.25455391     0.06750
H969        H  0.87105627  0.29997377  0.26700236     0.06590
C970        C  0.71287385  0.41117003  0.24090027     0.03630
C971        C  0.73973552  0.39682895  0.24921553    -0.12520
C972        C  0.74008123  0.36599476  0.25259891     0.01130
C973        C  0.71365136  0.34952740  0.24774511    -0.11040
C974        C  0.68681732  0.36336395  0.23928306     0.03620
C975        C  0.68640182  0.39422559  0.23577441    -0.10470
H976        H  0.76029265  0.40947692  0.25343520     0.09220
H977        H  0.71399409  0.32562079  0.25037489     0.06750
H978        H  0.66554803  0.40486892  0.22911078     0.06590
C979        C  0.70980794  0.08857269  0.24323690     0.03630
C980        C  0.73605455  0.10567159  0.23809259    -0.12520
C981        C  0.73560199  0.13650108  0.24289603     0.01130
C982        C  0.70894100  0.15017779  0.25297104    -0.11040
C983        C  0.68269905  0.13356562  0.25803201     0.03620
C984        C  0.68304816  0.10278384  0.25251252    -0.10470
H985        H  0.75677629  0.09516350  0.23037527     0.09220
H986        H  0.70856119  0.17405520  0.25652726     0.06750
H987        H  0.66260143  0.09002635  0.25627298     0.06590
C988        C  0.54978413  0.24789124  0.25462509     0.03630
C989        C  0.56664903  0.27370122  0.24452306    -0.12520
C990        C  0.59738961  0.27255753  0.24030025     0.01130
C991        C  0.61127048  0.24550037  0.24674393    -0.11040
C992        C  0.59479272  0.21963346  0.25689390     0.03620
C993        C  0.56409960  0.22097296  0.26182990    -0.10470
H994        H  0.55594445  0.29461222  0.23912295     0.09220
H995        H  0.63513065  0.24457502  0.24425616     0.06750
H996        H  0.55146223  0.20106797  0.27094673     0.06590
O997        O  0.93822443  0.20732792  0.00388592    -0.71280
O998        O  0.93551320  0.29129260  0.50527626    -0.71490
O999        O  0.93677755  0.24935338  0.43179589    -0.71350
O1000       O  0.93700928  0.24909464  0.07713578    -0.71360
O1001       O  0.98506587  0.25199681  0.07786215    -0.71320
O1002       O  0.98482106  0.25257651  0.43274162    -0.71340
O1003       O  0.98349148  0.29414827  0.00585932    -0.71280
O1004       O  0.98619015  0.21039882  0.50416978    -0.71470
V1005       V  0.93779975  0.24935919  0.50454338     1.35240
V1006       V  0.98394125  0.25220566  0.50524392     1.35170
C1007       C  0.96272874  0.19454806  0.50308275     0.77960
C1008       C  0.95904594  0.30705086  0.50571419     0.78020
C1009       C  0.96080223  0.25091653  0.40773795     0.77890
C1010       C  0.96110509  0.25045850  0.10202202     0.77850
O1011       O  0.91820124  0.22769910  0.25235894    -0.71280
O1012       O  0.50169974  0.22535159  0.25713299    -0.71490
O1013       O  0.95894535  0.22670412  0.32737862    -0.71350
O1014       O  0.96068095  0.22641582  0.18213560    -0.71360
O1015       O  0.96188520  0.27449515  0.18241122    -0.71320
O1016       O  0.96325211  0.27468640  0.32759183    -0.71340
O1017       O  0.50436345  0.27330694  0.25457108    -0.71280
O1018       O  0.92074884  0.27567018  0.25535107    -0.71470
V1019       V  0.95996227  0.22746950  0.25477481     1.35240
V1020       V  0.96251249  0.27361690  0.25499543     1.35170
C1021       C  0.90522208  0.25204589  0.25357508     0.77960
C1022       C  0.51729848  0.24890325  0.25585198     0.78020
C1023       C  0.96092208  0.25076301  0.35200997     0.77890
C1024       C  0.96124907  0.25043925  0.15774502     0.77850
O1025       O  0.67127739  0.02485991  0.98481620    -0.71280
O1026       O  0.75533791  0.02194543  0.49361367    -0.71490
O1027       O  0.71503239  0.02344688  0.41656661    -0.71350
O1028       O  0.71159943  0.02367403  0.06154124    -0.71360
O1029       O  0.70822485  0.47564949  0.06127405    -0.71320
O1030       O  0.71204331  0.47540533  0.41613735    -0.71340
O1031       O  0.75204025  0.47400747  0.99383975    -0.71280
O1032       O  0.66837740  0.47691172  0.48415012    -0.71470
V1033       V  0.71324200  0.02255689  0.48902631     1.35320
V1034       V  0.71027305  0.47643952  0.48872788     1.35170
C1035       C  0.65547294  0.50133512  0.48286859     0.77960
C1036       C  0.76794832  0.49737739  0.49704664     0.78020
C1037       C  0.71366225  0.49943349  0.39181886     0.77890
C1038       C  0.70962397  0.49971846  0.08594328     0.77850
O1039       O  0.68673487  0.04059421  0.24116667    -0.71280
O1040       O  0.68816489  0.45693397  0.23794209    -0.71490
O1041       O  0.68863009  0.99797053  0.31199417    -0.71350
O1042       O  0.68635375  0.49933031  0.16666179    -0.71360
O1043       O  0.73442657  0.00044365  0.16586132    -0.71320
O1044       O  0.73664705  0.50142191  0.31105774    -0.71340
O1045       O  0.73616766  0.45904570  0.23909975    -0.71280
O1046       O  0.73466986  0.04282132  0.23807990    -0.71470
V1047       V  0.68840146  0.99878259  0.23936036     1.35240
V1048       V  0.73454889  0.00088698  0.23844340     1.35170
C1049       C  0.71043099  0.05600993  0.24038161     0.77960
C1050       C  0.71239490  0.44370289  0.23894704     0.78020
C1051       C  0.71300939  0.99954936  0.33606240     0.77890
C1052       C  0.71007850  0.99983428  0.14171389     0.77850
C1053       C  0.95809418  0.33971573  0.50611272     0.03630
C1054       C  0.98346377  0.35682542  0.49386829    -0.12520
C1055       C  0.98264688  0.38777277  0.49368482     0.01130
C1056       C  0.95659023  0.40166815  0.50767737    -0.11040
C1057       C  0.93133733  0.38498355  0.52135016     0.03620
C1058       C  0.93197946  0.35401879  0.51931608    -0.10470
H1059       H  0.50372430  0.34616110  0.48360570     0.09220
H1060       H  0.95606618  0.42560239  0.50849490     0.06750
H1061       H  0.91241514  0.34115652  0.52951498     0.06590
C1062       C  0.62275450  0.50224794  0.97925374     0.03630
C1063       C  0.60550167  0.47575781  0.97686393    -0.12520
C1064       C  0.57446526  0.47648049  0.97426967     0.01130
C1065       C  0.56093176  0.50396543  0.97327621    -0.11040
C1066       C  0.57762316  0.03039809  0.97457207     0.03620
C1067       C  0.60852307  0.02956987  0.97787714    -0.10470
H1068       H  0.61620285  0.45468071  0.97628381     0.09220
H1069       H  0.53701285  0.50490901  0.97179349     0.06750
H1070       H  0.62131084  0.05014354  0.97905824     0.06590
C1071       C  0.96410532  0.16202002  0.99846052     0.03630
C1072       C  0.99104616  0.14915989  0.98557681    -0.12520
C1073       C  0.99195001  0.11902517  0.97419802     0.01130
C1074       C  0.96592966  0.10183550  0.47574462    -0.11040
C1075       C  0.93991095  0.11296196  0.49640605     0.03620
C1076       C  0.93875765  0.14361803  0.50569036    -0.10470
H1077       H  0.51118726  0.16254138  0.98325625     0.09220
H1078       H  0.96682588  0.07875384  0.46488829     0.06750
H1079       H  0.91863432  0.15306159  0.51957371     0.06590
C1080       C  0.80007787  0.49581767  0.50862188     0.03630
C1081       C  0.81165129  0.46911916  0.52656132    -0.12520
C1082       C  0.84094021  0.46793365  0.54437812     0.01130
C1083       C  0.85691931  0.49481315  0.54971136    -0.11040
C1084       C  0.84782615  0.02116582  0.52629659     0.03620
C1085       C  0.81896988  0.02104912  0.50486649    -0.10470
H1086       H  0.79750608  0.44959997  0.52809509     0.09220
H1087       H  0.87760911  0.49464431  0.57021851     0.06750
H1088       H  0.81084211  0.04018274  0.48527939     0.06590
C1089       C  0.88542257  0.09840007  0.00473781    -0.11770
C1090       C  0.91546015  0.09152568  0.51031758     0.05240
C1091       C  0.92230182  0.06281683  0.52683545    -0.07050
C1092       C  0.90040567  0.04067620  0.52562388    -0.07800
C1093       C  0.87001838  0.04687589  0.52185828    -0.02350
C1094       C  0.86266603  0.07701335  0.01394959     0.04470
N1095       N  0.83286726  0.08679338  0.01761119     0.66970
H1096       H  0.87952471  0.12066477  0.99464830     0.15870
H1097       H  0.90801884  0.01842542  0.52895941     0.15580
N1098       N  0.95105388  0.05603511  0.54732901     0.74680
O1099       O  0.81755951  0.07966041  0.05588769    -0.38770
O1100       O  0.82359325  0.10636228  0.48759336    -0.38710
O1101       O  0.96441325  0.07417604  0.07696156    -0.39420
O1102       O  0.96135457  0.03059311  0.54156503    -0.39480
C1103       C  0.53842907  0.10051132  0.01070425    -0.11770
C1104       C  0.52014692  0.10372577  0.96736778     0.05240
C1105       C  0.52477747  0.08611276  0.42359444    -0.07050
C1106       C  0.54558092  0.06372327  0.42626759    -0.07800
C1107       C  0.56172798  0.05848153  0.97136471    -0.02350
C1108       C  0.55894544  0.07774656  0.01378597     0.04470
N1109       N  0.57469387  0.07334161  0.06132722     0.66970
H1110       H  0.53442721  0.11377917  0.04441923     0.15870
H1111       H  0.54825112  0.04918448  0.39368180     0.15580
N1112       N  0.00751334  0.08971176  0.37741588     0.74680
O1113       O  0.58044791  0.09504790  0.09065007    -0.38770
O1114       O  0.58000353  0.04766165  0.07699705    -0.38710
O1115       O  0.49677746  0.11440651  0.36656727    -0.39420
O1116       O  0.00467551  0.06881028  0.34541116    -0.39480
C1117       C  0.88123511  0.43918128  0.58623685    -0.11770
C1118       C  0.85723801  0.43951818  0.55127789     0.05240
C1119       C  0.85479139  0.41612274  0.01497878    -0.07050
C1120       C  0.87844692  0.39704827  0.00837698    -0.07800
C1121       C  0.90444158  0.40035211  0.53775733    -0.02350
C1122       C  0.90524694  0.42061298  0.57909628     0.04470
N1123       N  0.93069945  0.42359826  0.61256489     0.66970
H1124       H  0.88236763  0.45501518  0.61741571     0.15870
H1125       H  0.87716663  0.38067038  0.97798817     0.15580
N1126       N  0.82910566  0.41185191  0.98316878     0.74680
O1127       O  0.93736967  0.44822531  0.63312760    -0.38770
O1128       O  0.94568514  0.40138766  0.12400039    -0.38710
O1129       O  0.83131404  0.41429269  0.43529842    -0.39420
O1130       O  0.80678445  0.39843920  0.00120749    -0.39480
C1131       C  0.53392041  0.40559473  0.01357586    -0.11770
C1132       C  0.50916866  0.40604588  0.48070191     0.05240
C1133       C  0.50865720  0.42664492  0.44016180    -0.07050
C1134       C  0.53169369  0.44792514  0.43665954    -0.07800
C1135       C  0.55518050  0.44924258  0.47241171    -0.02350
C1136       C  0.55690382  0.42687880  0.00972602     0.04470
N1137       N  0.58036656  0.42694341  0.04682027     0.66970
H1138       H  0.53452283  0.38975736  0.04452144     0.15870
H1139       H  0.53080730  0.46440364  0.40678004     0.15580
N1140       N  0.98476100  0.42670343  0.40316759     0.74680
O1141       O  0.57563601  0.43580752  0.09173345    -0.38770
O1142       O  0.60309067  0.41224543  0.53817600    -0.38710
O1143       O  0.97879129  0.45008305  0.87943305    -0.39420
O1144       O  0.97138129  0.40290629  0.39045278    -0.39480
C1145       C  0.63397049  0.14921177  0.22646667    -0.11770
C1146       C  0.65499852  0.14934579  0.26628985     0.05240
C1147       C  0.65226231  0.16915288  0.30788638    -0.07050
C1148       C  0.63009977  0.19020474  0.30594352    -0.07800
C1149       C  0.61070403  0.19182773  0.26384499    -0.02350
C1150       C  0.61178975  0.17030168  0.22452484     0.04470
N1151       N  0.59247983  0.17105578  0.18042877     0.66970
H1152       H  0.63619295  0.13395059  0.19475646     0.15870
H1153       H  0.62897306  0.20665641  0.33607166     0.15580
N1154       N  0.67264832  0.16913818  0.35073625     0.74680
O1155       O  0.60183068  0.16366918  0.13702896    -0.38770
O1156       O  0.56521001  0.17509492  0.18560251    -0.38710
O1157       O  0.67715947  0.19226196  0.37723009    -0.39420
O1158       O  0.68461219  0.14554857  0.36461474    -0.39480
C1159       C  0.61423707  0.32299265  0.26674385    -0.11770
C1160       C  0.61562155  0.29961636  0.23141836     0.05240
C1161       C  0.63753078  0.30040000  0.19336274    -0.07050
C1162       C  0.65940781  0.32282911  0.19526974    -0.07800
C1163       C  0.65977532  0.34458202  0.23369183    -0.02350
C1164       C  0.63626409  0.34544347  0.26880393     0.04470
N1165       N  0.63540265  0.36730834  0.30889239     0.66970
H1166       H  0.59738833  0.32233294  0.29583970     0.15870
H1167       H  0.67700793  0.32283725  0.16752762     0.15580
N1168       N  0.63827668  0.27827599  0.15360389     0.74680
O1169       O  0.61084222  0.37619385  0.32435572    -0.38770
O1170       O  0.65862188  0.37502048  0.33327156    -0.38710
O1171       O  0.61458292  0.26666926  0.13592708    -0.39420
O1172       O  0.66242321  0.27207691  0.13294199    -0.39480
C1173       C  0.81213131  0.32803731  0.22882592    -0.11770
C1174       C  0.81169580  0.30769314  0.26911083     0.05240
C1175       C  0.79117540  0.31064677  0.30896331    -0.07050
C1176       C  0.76934550  0.33184315  0.30421601    -0.07800
C1177       C  0.76764336  0.34995893  0.26093698    -0.02350
C1178       C  0.79002207  0.34901794  0.22370287     0.04470
N1179       N  0.78935730  0.36707454  0.17853122     0.66970
H1180       H  0.82787355  0.32549337  0.19831102     0.15870
H1181       H  0.75252044  0.33329246  0.33319663     0.15580
N1182       N  0.79138975  0.29143433  0.35283771     0.74680
O1183       O  0.81326701  0.37583814  0.15855948    -0.38770
O1184       O  0.76536910  0.37105941  0.15469587    -0.38710
O1185       O  0.81511706  0.28012652  0.36809271    -0.39420
O1186       O  0.76836416  0.28755487  0.37901997    -0.39480
C1187       C  0.80928697  0.17619708  0.26828512    -0.11770
C1188       C  0.80667497  0.20014515  0.23477179     0.05240
C1189       C  0.78346431  0.20003479  0.19807533    -0.07050
C1190       C  0.76154534  0.17770208  0.19992673    -0.07800
C1191       C  0.76244194  0.15537345  0.23690044    -0.02350
C1192       C  0.78724993  0.15379213  0.27019533     0.04470
N1193       N  0.78950002  0.13118728  0.30846064     0.66970
H1194       H  0.82717721  0.17633529  0.29624865     0.15870
H1195       H  0.74298047  0.17820554  0.17336165     0.15580
N1196       N  0.78141291  0.22283847  0.15998005     0.74680
O1197       O  0.81450938  0.12152242  0.32075666    -0.38770
O1198       O  0.76730743  0.12347004  0.33445322    -0.38710
O1199       O  0.80450181  0.23470259  0.14167505    -0.39420
O1200       O  0.75658578  0.22953612  0.14145175    -0.39480
C1201       C  0.87274878  0.25276395  0.75320175     0.03630
C1202       C  0.85585970  0.22656866  0.74501019    -0.12520
C1203       C  0.82497608  0.22715866  0.74444779     0.01130
C1204       C  0.81101588  0.25378879  0.75414343    -0.11040
C1205       C  0.82754046  0.27996793  0.76231978     0.03620
C1206       C  0.85839593  0.27955903  0.76110604    -0.10470
H1207       H  0.86660178  0.20582960  0.73817791     0.09220
H1208       H  0.78707073  0.25425141  0.75455390     0.06750
H1209       H  0.87105627  0.29997377  0.76700236     0.06590
C1210       C  0.71287385  0.41117003  0.74090026     0.03630
C1211       C  0.73973553  0.39682895  0.74921552    -0.12520
C1212       C  0.74008123  0.36599476  0.75259890     0.01130
C1213       C  0.71365137  0.34952739  0.74774509    -0.11040
C1214       C  0.68681732  0.36336395  0.73928305     0.03620
C1215       C  0.68640182  0.39422559  0.73577440    -0.10470
H1216       H  0.76029265  0.40947692  0.75343520     0.09220
H1217       H  0.71399409  0.32562079  0.75037487     0.06750
H1218       H  0.66554803  0.40486892  0.72911077     0.06590
C1219       C  0.70980794  0.08857269  0.74323690     0.03630
C1220       C  0.73605455  0.10567159  0.73809260    -0.12520
C1221       C  0.73560200  0.13650108  0.74289603     0.01130
C1222       C  0.70894100  0.15017779  0.75297104    -0.11040
C1223       C  0.68269905  0.13356562  0.75803201     0.03620
C1224       C  0.68304816  0.10278384  0.75251253    -0.10470
H1225       H  0.75677629  0.09516350  0.73037528     0.09220
H1226       H  0.70856119  0.17405520  0.75652726     0.06750
H1227       H  0.66260143  0.09002635  0.75627298     0.06590
C1228       C  0.54978413  0.24789124  0.75462509     0.03630
C1229       C  0.56664904  0.27370122  0.74452306    -0.12520
C1230       C  0.59738961  0.27255753  0.74030024     0.01130
C1231       C  0.61127048  0.24550037  0.74674392    -0.11040
C1232       C  0.59479272  0.21963346  0.75689389     0.03620
C1233       C  0.56409960  0.22097296  0.76182989    -0.10470
H1234       H  0.55594445  0.29461222  0.73912295     0.09220
H1235       H  0.63513065  0.24457502  0.74425614     0.06750
H1236       H  0.55146223  0.20106797  0.77094673     0.06590
O1237       O  0.93822442  0.20732793  0.50388592    -0.71280
O1238       O  0.93551320  0.29129260  0.00527626    -0.71490
O1239       O  0.93677755  0.24935338  0.93179589    -0.71350
O1240       O  0.93700927  0.24909465  0.57713578    -0.71360
O1241       O  0.98506587  0.25199681  0.57786215    -0.71320
O1242       O  0.98482106  0.25257651  0.93274162    -0.71340
O1243       O  0.98349147  0.29414827  0.50585931    -0.71280
O1244       O  0.98619015  0.21039881  0.00416978    -0.71470
V1245       V  0.93779975  0.24935918  0.00454338     1.35240
V1246       V  0.98394125  0.25220566  0.00524392     1.35170
C1247       C  0.96272875  0.19454805  0.00308275     0.77960
C1248       C  0.95904594  0.30705086  0.00571419     0.78020
C1249       C  0.96080223  0.25091653  0.90773794     0.77890
C1250       C  0.96110509  0.25045851  0.60202202     0.77850
O1251       O  0.91820125  0.22769910  0.75235894    -0.71280
O1252       O  0.50169974  0.22535159  0.75713298    -0.71490
O1253       O  0.95894535  0.22670411  0.82737862    -0.71350
O1254       O  0.96068096  0.22641582  0.68213560    -0.71360
O1255       O  0.96188520  0.27449515  0.68241123    -0.71320
O1256       O  0.96325211  0.27468640  0.82759183    -0.71340
O1257       O  0.50436345  0.27330694  0.75457108    -0.71280
O1258       O  0.92074884  0.27567018  0.75535107    -0.71470
V1259       V  0.95996227  0.22746950  0.75477481     1.35240
V1260       V  0.96251249  0.27361690  0.75499543     1.35170
C1261       C  0.90522209  0.25204589  0.75357508     0.77960
C1262       C  0.51729848  0.24890325  0.75585197     0.78020
C1263       C  0.96092208  0.25076301  0.85200997     0.77890
C1264       C  0.96124907  0.25043925  0.65774502     0.77850
O1265       O  0.67127739  0.02485991  0.48481620    -0.71280
O1266       O  0.75533791  0.02194543  0.99361367    -0.71490
O1267       O  0.71503239  0.02344688  0.91656661    -0.71350
O1268       O  0.71159943  0.02367403  0.56154124    -0.71360
O1269       O  0.70822485  0.47564950  0.56127405    -0.71320
O1270       O  0.71204331  0.47540533  0.91613735    -0.71340
O1271       O  0.75204025  0.47400748  0.49383975    -0.71280
O1272       O  0.66837740  0.47691172  0.98415012    -0.71470
V1273       V  0.71324200  0.02255688  0.98902631     1.35320
V1274       V  0.71027305  0.47643952  0.98872788     1.35170
C1275       C  0.65547294  0.50133512  0.98286859     0.77960
C1276       C  0.76794832  0.49737739  0.99704664     0.78020
C1277       C  0.71366225  0.49943349  0.89181886     0.77890
C1278       C  0.70962398  0.49971847  0.58594328     0.77850
O1279       O  0.68673487  0.04059421  0.74116668    -0.71280
O1280       O  0.68816490  0.45693397  0.73794209    -0.71490
O1281       O  0.68863009  0.99797053  0.81199417    -0.71350
O1282       O  0.68635375  0.49933031  0.66666179    -0.71360
O1283       O  0.73442657  0.00044365  0.66586132    -0.71320
O1284       O  0.73664705  0.50142191  0.81105774    -0.71340
O1285       O  0.73616766  0.45904570  0.73909974    -0.71280
O1286       O  0.73466986  0.04282132  0.73807990    -0.71470
V1287       V  0.68840146  0.99878259  0.73936036     1.35240
V1288       V  0.73454889  0.00088698  0.73844340     1.35170
C1289       C  0.71043099  0.05600993  0.74038161     0.77960
C1290       C  0.71239490  0.44370289  0.73894704     0.78020
C1291       C  0.71300939  0.99954935  0.83606240     0.77890
C1292       C  0.71007850  0.99983428  0.64171389     0.77850
C1293       C  0.95809418  0.33971573  0.00611272     0.03630
C1294       C  0.98346377  0.35682541  0.99386829    -0.12520
C1295       C  0.98264688  0.38777277  0.99368482     0.01130
C1296       C  0.95659023  0.40166814  0.00767736    -0.11040
C1297       C  0.93133733  0.38498354  0.02135016     0.03620
C1298       C  0.93197947  0.35401878  0.01931607    -0.10470
H1299       H  0.50372431  0.34616110  0.98360571     0.09220
H1300       H  0.95606618  0.42560238  0.00849490     0.06750
H1301       H  0.91241514  0.34115652  0.02951497     0.06590
C1302       C  0.62275450  0.50224794  0.47925374     0.03630
C1303       C  0.60550167  0.47575782  0.47686393    -0.12520
C1304       C  0.57446526  0.47648049  0.47426967     0.01130
C1305       C  0.56093176  0.50396543  0.47327623    -0.11040
C1306       C  0.57762316  0.03039809  0.47457208     0.03620
C1307       C  0.60852308  0.02956987  0.47787715    -0.10470
H1308       H  0.61620285  0.45468071  0.47628380     0.09220
H1309       H  0.53701285  0.50490901  0.47179351     0.06750
H1310       H  0.62131084  0.05014354  0.47905825     0.06590
C1311       C  0.96410532  0.16202003  0.49846053     0.03630
C1312       C  0.99104616  0.14915989  0.48557682    -0.12520
C1313       C  0.99195000  0.11902517  0.47419803     0.01130
C1314       C  0.96592966  0.10183549  0.97574460    -0.11040
C1315       C  0.93991096  0.11296196  0.99640603     0.03620
C1316       C  0.93875765  0.14361802  0.00569035    -0.10470
H1317       H  0.51118726  0.16254138  0.48325626     0.09220
H1318       H  0.96682588  0.07875383  0.96488827     0.06750
H1319       H  0.91863432  0.15306159  0.01957370     0.06590
C1320       C  0.80007787  0.49581766  0.00862187     0.03630
C1321       C  0.81165129  0.46911916  0.02656131    -0.12520
C1322       C  0.84094021  0.46793364  0.04437811     0.01130
C1323       C  0.85691931  0.49481314  0.04971135    -0.11040
C1324       C  0.84782616  0.02116581  0.02629657     0.03620
C1325       C  0.81896988  0.02104911  0.00486648    -0.10470
H1326       H  0.79750608  0.44959997  0.02809508     0.09220
H1327       H  0.87760911  0.49464430  0.07021850     0.06750
H1328       H  0.81084211  0.04018274  0.98527938     0.06590
C1329       C  0.88542256  0.09840007  0.50473783    -0.11770
C1330       C  0.91546015  0.09152567  0.01031756     0.05240
C1331       C  0.92230182  0.06281682  0.02683543    -0.07050
C1332       C  0.90040567  0.04067619  0.02562386    -0.07800
C1333       C  0.87001838  0.04687588  0.02185826    -0.02350
C1334       C  0.86266603  0.07701336  0.51394961     0.04470
N1335       N  0.83286725  0.08679338  0.51761120     0.66970
H1336       H  0.87952471  0.12066478  0.49464831     0.15870
H1337       H  0.90801884  0.01842542  0.02895938     0.15580
N1338       N  0.95105388  0.05603511  0.04732899     0.74680
O1339       O  0.81755951  0.07966041  0.55588770    -0.38770
O1340       O  0.82359325  0.10636227  0.98759334    -0.38710
O1341       O  0.96441325  0.07417604  0.57696158    -0.39420
O1342       O  0.96135457  0.03059310  0.04156501    -0.39480
C1343       C  0.53842907  0.10051132  0.51070427    -0.11770
C1344       C  0.52014692  0.10372577  0.46736780     0.05240
C1345       C  0.52477747  0.08611275  0.92359443    -0.07050
C1346       C  0.54558091  0.06372326  0.92626758    -0.07800
C1347       C  0.56172798  0.05848153  0.47136473    -0.02350
C1348       C  0.55894544  0.07774657  0.51378599     0.04470
N1349       N  0.57469387  0.07334161  0.56132723     0.66970
H1350       H  0.53442722  0.11377917  0.54441925     0.15870
H1351       H  0.54825112  0.04918447  0.89368179     0.15580
N1352       N  0.00751334  0.08971176  0.87741586     0.74680
O1353       O  0.58044791  0.09504790  0.59065008    -0.38770
O1354       O  0.58000354  0.04766165  0.57699706    -0.38710
O1355       O  0.49677746  0.11440650  0.86656725    -0.39420
O1356       O  0.00467551  0.06881028  0.84541113    -0.39480
C1357       C  0.88123511  0.43918127  0.08623684    -0.11770
C1358       C  0.85723801  0.43951817  0.05127788     0.05240
C1359       C  0.85479139  0.41612274  0.51497880    -0.07050
C1360       C  0.87844692  0.39704827  0.50837700    -0.07800
C1361       C  0.90444158  0.40035210  0.03775732    -0.02350
C1362       C  0.90524694  0.42061297  0.07909627     0.04470
N1363       N  0.93069944  0.42359825  0.11256489     0.66970
H1364       H  0.88236762  0.45501517  0.11741571     0.15870
H1365       H  0.87716662  0.38067038  0.47798819     0.15580
N1366       N  0.82910565  0.41185191  0.48316882     0.74680
O1367       O  0.93736967  0.44822530  0.13312761    -0.38770
O1368       O  0.94568514  0.40138767  0.62400039    -0.38710
O1369       O  0.83131406  0.41429271  0.93529839    -0.39420
O1370       O  0.80678445  0.39843920  0.50120755    -0.39480
C1371       C  0.53392042  0.40559472  0.51357584    -0.11770
C1372       C  0.50916866  0.40604588  0.98070193     0.05240
C1373       C  0.50865721  0.42664491  0.94016181    -0.07050
C1374       C  0.53169369  0.44792513  0.93665954    -0.07800
C1375       C  0.55518051  0.44924258  0.97241172    -0.02350
C1376       C  0.55690382  0.42687880  0.50972600     0.04470
N1377       N  0.58036657  0.42694339  0.54682024     0.66970
H1378       H  0.53452284  0.38975735  0.54452141     0.15870
H1379       H  0.53080730  0.46440363  0.90678003     0.15580
N1380       N  0.98476102  0.42670341  0.90316756     0.74680
O1381       O  0.57563603  0.43580751  0.59173342    -0.38770
O1382       O  0.60309066  0.41224545  0.03817605    -0.38710
O1383       O  0.97879127  0.45008309  0.37943309    -0.39420
O1384       O  0.97138131  0.40290627  0.89045278    -0.39480
C1385       C  0.63397049  0.14921177  0.72646667    -0.11770
C1386       C  0.65499852  0.14934579  0.76628985     0.05240
C1387       C  0.65226231  0.16915288  0.80788638    -0.07050
C1388       C  0.63009977  0.19020474  0.80594351    -0.07800
C1389       C  0.61070403  0.19182773  0.76384498    -0.02350
C1390       C  0.61178975  0.17030168  0.72452483     0.04470
N1391       N  0.59247984  0.17105578  0.68042877     0.66970
H1392       H  0.63619295  0.13395059  0.69475646     0.15870
H1393       H  0.62897306  0.20665641  0.83607165     0.15580
N1394       N  0.67264832  0.16913818  0.85073625     0.74680
O1395       O  0.60183068  0.16366917  0.63702896    -0.38770
O1396       O  0.56521002  0.17509492  0.68560251    -0.38710
O1397       O  0.67715947  0.19226196  0.87723009    -0.39420
O1398       O  0.68461219  0.14554857  0.86461474    -0.39480
C1399       C  0.61423708  0.32299265  0.76674384    -0.11770
C1400       C  0.61562155  0.29961636  0.73141835     0.05240
C1401       C  0.63753078  0.30040000  0.69336272    -0.07050
C1402       C  0.65940781  0.32282911  0.69526973    -0.07800
C1403       C  0.65977532  0.34458202  0.73369181    -0.02350
C1404       C  0.63626409  0.34544347  0.76880392     0.04470
N1405       N  0.63540266  0.36730834  0.80889237     0.66970
H1406       H  0.59738834  0.32233294  0.79583969     0.15870
H1407       H  0.67700793  0.32283725  0.66752760     0.15580
N1408       N  0.63827668  0.27827599  0.65360388     0.74680
O1409       O  0.61084222  0.37619385  0.82435571    -0.38770
O1410       O  0.65862188  0.37502048  0.83327155    -0.38710
O1411       O  0.61458292  0.26666926  0.63592707    -0.39420
O1412       O  0.66242321  0.27207691  0.63294197    -0.39480
C1413       C  0.81213132  0.32803731  0.72882591    -0.11770
C1414       C  0.81169580  0.30769314  0.76911082     0.05240
C1415       C  0.79117540  0.31064677  0.80896330    -0.07050
C1416       C  0.76934550  0.33184315  0.80421600    -0.07800
C1417       C  0.76764336  0.34995893  0.76093696    -0.02350
C1418       C  0.79002207  0.34901793  0.72370286     0.04470
N1419       N  0.78935730  0.36707454  0.67853121     0.66970
H1420       H  0.82787356  0.32549336  0.69831101     0.15870
H1421       H  0.75252044  0.33329246  0.83319662     0.15580
N1422       N  0.79138975  0.29143432  0.85283770     0.74680
O1423       O  0.81326702  0.37583814  0.65855946    -0.38770
O1424       O  0.76536910  0.37105941  0.65469586    -0.38710
O1425       O  0.81511706  0.28012652  0.86809270    -0.39420
O1426       O  0.76836416  0.28755487  0.87901996    -0.39480
C1427       C  0.80928697  0.17619708  0.76828513    -0.11770
C1428       C  0.80667497  0.20014515  0.73477179     0.05240
C1429       C  0.78346432  0.20003478  0.69807533    -0.07050
C1430       C  0.76154535  0.17770208  0.69992672    -0.07800
C1431       C  0.76244194  0.15537344  0.73690045    -0.02350
C1432       C  0.78724993  0.15379213  0.77019534     0.04470
N1433       N  0.78950002  0.13118729  0.80846065     0.66970
H1434       H  0.82717721  0.17633529  0.79624866     0.15870
H1435       H  0.74298047  0.17820554  0.67336165     0.15580
N1436       N  0.78141292  0.22283846  0.65998004     0.74680
O1437       O  0.81450938  0.12152242  0.82075668    -0.38770
O1438       O  0.76730742  0.12347004  0.83445323    -0.38710
O1439       O  0.80450182  0.23470258  0.64167505    -0.39420
O1440       O  0.75658578  0.22953611  0.64145173    -0.39480
C1441       C  0.87274853  0.75276267  0.25320186     0.03630
C1442       C  0.85585959  0.72656724  0.24501063    -0.12520
C1443       C  0.82497595  0.72715708  0.24444858     0.01130
C1444       C  0.81101563  0.75378714  0.25414433    -0.11040
C1445       C  0.82754009  0.77996637  0.26232042     0.03620
C1446       C  0.85839553  0.77955764  0.26110631    -0.10470
H1447       H  0.86660179  0.70582827  0.23817823     0.09220
H1448       H  0.78707047  0.75424965  0.25455491     0.06750
H1449       H  0.87105575  0.79997248  0.26700235     0.06590
C1450       C  0.71287546  0.91117012  0.24089861     0.03630
C1451       C  0.73973684  0.89682860  0.24921424    -0.12520
C1452       C  0.74008194  0.86599439  0.25259805     0.01130
C1453       C  0.71365179  0.84952748  0.24774428    -0.11040
C1454       C  0.68681803  0.86336449  0.23928194     0.03620
C1455       C  0.68640313  0.89422612  0.23577283    -0.10470
H1456       H  0.76029416  0.90947623  0.25343393     0.09220
H1457       H  0.71399405  0.82562087  0.25037437     0.06750
H1458       H  0.66554955  0.90486979  0.22910900     0.06590
C1459       C  0.70980607  0.58857264  0.24323873     0.03630
C1460       C  0.73605294  0.60567111  0.23809414    -0.12520
C1461       C  0.73560094  0.63650061  0.24289740     0.01130
C1462       C  0.70894022  0.65017780  0.25297247    -0.11040
C1463       C  0.68269801  0.63356607  0.25803380     0.03620
C1464       C  0.68304657  0.60278423  0.25251451    -0.10470
H1465       H  0.75677449  0.59516268  0.23037674     0.09220
H1466       H  0.70856084  0.67405523  0.25652848     0.06750
H1467       H  0.66259966  0.59002706  0.25627519     0.06590
C1468       C  0.54978401  0.74789273  0.25462537     0.03630
C1469       C  0.56664881  0.77370277  0.24452321    -0.12520
C1470       C  0.59738943  0.77255919  0.24030073     0.01130
C1471       C  0.61127041  0.74550212  0.24674495    -0.11040
C1472       C  0.59479274  0.71963520  0.25689513     0.03620
C1473       C  0.56409962  0.72097459  0.26183082    -0.10470
H1474       H  0.55594412  0.79461368  0.23912262     0.09220
H1475       H  0.63513059  0.74457685  0.24425728     0.06750
H1476       H  0.55146233  0.70106959  0.27094789     0.06590
O1477       O  0.93822310  0.70732859  0.00388511    -0.71280
O1478       O  0.93551396  0.79129345  0.50527588    -0.71490
O1479       O  0.93677727  0.74935428  0.43179534    -0.71350
O1480       O  0.93700901  0.74909534  0.07713525    -0.71360
O1481       O  0.98506564  0.75199645  0.07786158    -0.71320
O1482       O  0.98482083  0.75257613  0.43274107    -0.71340
O1483       O  0.98349227  0.79414802  0.00585870    -0.71280
O1484       O  0.98618886  0.71039845  0.50416918    -0.71470
V1485       V  0.93779947  0.74935995  0.50454283     1.35240
V1486       V  0.98394100  0.75220535  0.50524336     1.35170
C1487       C  0.96272713  0.69454819  0.50308179     0.77960
C1488       C  0.95904704  0.80705119  0.50571363     0.78020
C1489       C  0.96080197  0.75091678  0.40773740     0.77890
C1490       C  0.96110485  0.75045865  0.10202148     0.77850
O1491       O  0.91820139  0.72769849  0.25235845    -0.71280
O1492       O  0.50169995  0.72535247  0.25713263    -0.71490
O1493       O  0.95894554  0.72670428  0.32737814    -0.71350
O1494       O  0.96068120  0.72641595  0.18213510    -0.71360
O1495       O  0.96188457  0.77449528  0.18241067    -0.71320
O1496       O  0.96325148  0.77468662  0.32759126    -0.71340
O1497       O  0.50436293  0.77330784  0.25457059    -0.71280
O1498       O  0.92074823  0.77566958  0.25535055    -0.71470
V1499       V  0.95996245  0.72746965  0.25477432     1.35240
V1500       V  0.96251191  0.77361706  0.25499487     1.35170
C1501       C  0.90522184  0.75204505  0.25357471     0.77960
C1502       C  0.51729833  0.74890436  0.25585172     0.78020
C1503       C  0.96092184  0.75076321  0.35200944     0.77890
C1504       C  0.96124885  0.75043938  0.15774449     0.77850
O1505       O  0.67127477  0.52485992  0.98481798    -0.71280
O1506       O  0.75533528  0.52194543  0.49361547    -0.71490
O1507       O  0.71502982  0.52344685  0.41656849    -0.71350
O1508       O  0.71159683  0.52367403  0.06154314    -0.71360
O1509       O  0.70822743  0.97564949  0.06127213    -0.71320
O1510       O  0.71204597  0.97540536  0.41613542    -0.71340
O1511       O  0.75204290  0.97400748  0.99383799    -0.71280
O1512       O  0.66838010  0.97691170  0.48414818    -0.71470
V1513       V  0.71323938  0.52255688  0.48902819     1.35320
V1514       V  0.71027571  0.97643953  0.48872597     1.35170
C1515       C  0.65547560  0.00133508  0.48286692     0.77960
C1516       C  0.76795095  0.99737739  0.49704515     0.78020
C1517       C  0.71366477  0.99943354  0.39181694     0.77890
C1518       C  0.70962648  0.99971847  0.08594137     0.77850
O1519       O  0.68673257  0.54059419  0.24116870    -0.71280
O1520       O  0.68816705  0.95693419  0.23794021    -0.71490
O1521       O  0.68862774  0.49797038  0.31199605    -0.71350
O1522       O  0.68635611  0.99933039  0.16665981    -0.71360
O1523       O  0.73442421  0.50044362  0.16586319    -0.71320
O1524       O  0.73664940  0.00142196  0.31105576    -0.71340
O1525       O  0.73616982  0.95904566  0.23909786    -0.71280
O1526       O  0.73466756  0.54282118  0.23808182    -0.71470
V1527       V  0.68839916  0.49878247  0.23936231     1.35240
V1528       V  0.73454658  0.50088693  0.23844532     1.35170
C1529       C  0.71042876  0.55600985  0.24038357     0.77960
C1530       C  0.71239695  0.94370298  0.23894520     0.78020
C1531       C  0.71300700  0.49954927  0.33606433     0.77890
C1532       C  0.71007611  0.49983425  0.14171582     0.77850
C1533       C  0.95809597  0.83971612  0.50611199     0.03630
C1534       C  0.98346577  0.85682539  0.49386712    -0.12520
C1535       C  0.98264932  0.88777280  0.49368331     0.01130
C1536       C  0.95659291  0.90166860  0.50767585    -0.11040
C1537       C  0.93133989  0.88498443  0.52134944     0.03620
C1538       C  0.93198158  0.85401964  0.51931567    -0.10470
H1539       H  0.50372612  0.84616072  0.48360454     0.09220
H1540       H  0.95606922  0.92560287  0.50849313     0.06750
H1541       H  0.91241717  0.84115769  0.52951519     0.06590
C1542       C  0.62275715  0.00224779  0.97925281     0.03630
C1543       C  0.60550450  0.97575759  0.97686250    -0.12520
C1544       C  0.57446808  0.97648004  0.97426960     0.01130
C1545       C  0.56093435  0.00396490  0.97327755    -0.11040
C1546       C  0.57762073  0.53039850  0.97457042     0.03620
C1547       C  0.60852061  0.52957010  0.97787655    -0.10470
H1548       H  0.61620583  0.95468060  0.97628072     0.09220
H1549       H  0.53701541  0.00490827  0.97179542     0.06750
H1550       H  0.62130848  0.55014371  0.97905736     0.06590
C1551       C  0.96410316  0.66202014  0.99845862     0.03630
C1552       C  0.99104382  0.64915993  0.98557422    -0.12520
C1553       C  0.99194743  0.61902537  0.97419423     0.01130
C1554       C  0.96592695  0.60183589  0.47574022    -0.11040
C1555       C  0.93990844  0.61296222  0.49640273     0.03620
C1556       C  0.93875536  0.64361823  0.50568812    -0.10470
H1557       H  0.51118506  0.66254126  0.98325414     0.09220
H1558       H  0.96682298  0.57875437  0.46488297     0.06750
H1559       H  0.91863218  0.65306179  0.51957213     0.06590
C1560       C  0.80008040  0.99581768  0.50862143     0.03630
C1561       C  0.81165359  0.96911932  0.52656206    -0.12520
C1562       C  0.84094226  0.96793391  0.54438051     0.01130
C1563       C  0.85692096  0.99481365  0.54971435    -0.11040
C1564       C  0.84782407  0.52116559  0.52629498     0.03620
C1565       C  0.81896735  0.52104913  0.50486663    -0.10470
H1566       H  0.79750820  0.94960034  0.52809587     0.09220
H1567       H  0.87761030  0.99464539  0.57022308     0.06750
H1568       H  0.81083926  0.54018291  0.48528043     0.06590
C1569       C  0.88542013  0.59840014  0.00473644    -0.11770
C1570       C  0.91545780  0.59152572  0.51031453     0.05240
C1571       C  0.92229972  0.56281669  0.52683116    -0.07050
C1572       C  0.90040356  0.54067603  0.52562002    -0.07800
C1573       C  0.87001622  0.54687574  0.52185612    -0.02350
C1574       C  0.86266376  0.57701328  0.01394868     0.04470
N1575       N  0.83286505  0.58679327  0.01761208     0.66970
H1576       H  0.87952211  0.62066493  0.99464799     0.15870
H1577       H  0.90801679  0.51842531  0.52895457     0.15580
N1578       N  0.95105206  0.55603474  0.54732322     0.74680
O1579       O  0.81755801  0.57966005  0.05588929    -0.38770
O1580       O  0.82359049  0.60636233  0.48759509    -0.38710
O1581       O  0.96441175  0.57417523  0.07695612    -0.39420
O1582       O  0.96135279  0.53059290  0.54155747    -0.39480
C1583       C  0.53842641  0.60051176  0.01070099    -0.11770
C1584       C  0.52014433  0.60372590  0.96736436     0.05240
C1585       C  0.52477508  0.58611274  0.42359129    -0.07050
C1586       C  0.54557869  0.56372341  0.42626488    -0.07800
C1587       C  0.56172567  0.55848197  0.97136223    -0.02350
C1588       C  0.55894287  0.57774714  0.01378321     0.04470
N1589       N  0.57469107  0.57334239  0.06132473     0.66970
H1590       H  0.53442442  0.61377973  0.04441577     0.15870
H1591       H  0.54824906  0.54918448  0.39367934     0.15580
N1592       N  0.00751105  0.58971146  0.37741253     0.74680
O1593       O  0.58044520  0.59504884  0.09064715    -0.38770
O1594       O  0.58000025  0.54766247  0.07699533    -0.38710
O1595       O  0.49677506  0.61440610  0.36656353    -0.39420
O1596       O  0.00467346  0.56880986  0.34540800    -0.39480
C1597       C  0.88123868  0.93918265  0.58623773    -0.11770
C1598       C  0.85724036  0.93951850  0.55128107     0.05240
C1599       C  0.85479289  0.91612199  0.01498398    -0.07050
C1600       C  0.87844879  0.89704813  0.00838049    -0.07800
C1601       C  0.90444452  0.90035334  0.53775765    -0.02350
C1602       C  0.90525080  0.92061497  0.57909543     0.04470
N1603       N  0.93070436  0.92360151  0.61256133     0.66970
H1604       H  0.88237180  0.95501672  0.61741627     0.15870
H1605       H  0.87716760  0.88066926  0.97799332     0.15580
N1606       N  0.82910526  0.91184842  0.98317952     0.74680
O1607       O  0.93737522  0.94822936  0.63312064    -0.38770
O1608       O  0.94569045  0.90139135  0.12399780    -0.38710
O1609       O  0.83131084  0.91428417  0.43530803    -0.39420
O1610       O  0.80678520  0.89843744  0.00122591    -0.39480
C1611       C  0.53392266  0.90559467  0.01357578    -0.11770
C1612       C  0.50917140  0.90604557  0.48070071     0.05240
C1613       C  0.50866055  0.92664430  0.44016009    -0.07050
C1614       C  0.53169718  0.94792440  0.43665819    -0.07800
C1615       C  0.55518358  0.94924198  0.47241114    -0.02350
C1616       C  0.55690628  0.92687856  0.00972623     0.04470
N1617       N  0.58036854  0.92694334  0.04682147     0.66970
H1618       H  0.53452456  0.88975759  0.04452183     0.15870
H1619       H  0.53081116  0.96440280  0.40677847     0.15580
N1620       N  0.98476473  0.92670270  0.40316511     0.74680
O1621       O  0.57563557  0.93580169  0.09173722    -0.38770
O1622       O  0.60309496  0.91224945  0.53817423    -0.38710
O1623       O  0.97879549  0.95008218  0.87942972    -0.39420
O1624       O  0.97138491  0.90290558  0.39045060    -0.39480
C1625       C  0.63396959  0.64921279  0.22646880    -0.11770
C1626       C  0.65499780  0.64934679  0.26629168     0.05240
C1627       C  0.65226218  0.66915435  0.30788770    -0.07050
C1628       C  0.63010001  0.69020659  0.30594462    -0.07800
C1629       C  0.61070403  0.69182947  0.26384640    -0.02350
C1630       C  0.61178921  0.67030306  0.22452680     0.04470
N1631       N  0.59247913  0.67105712  0.18043097     0.66970
H1632       H  0.63619161  0.63395131  0.19475891     0.15870
H1633       H  0.62897373  0.70665855  0.33607237     0.15580
N1634       N  0.67264841  0.66913969  0.35073727     0.74680
O1635       O  0.60182999  0.66367099  0.13703093    -0.38770
O1636       O  0.56520921  0.67509550  0.18560517    -0.38710
O1637       O  0.67716018  0.69226368  0.37723030    -0.39420
O1638       O  0.68461187  0.64554998  0.36461631    -0.39480
C1639       C  0.61423730  0.82299432  0.26674361    -0.11770
C1640       C  0.61562134  0.79961796  0.23141819     0.05240
C1641       C  0.63753037  0.80040132  0.19336220    -0.07050
C1642       C  0.65940768  0.82283014  0.19526885    -0.07800
C1643       C  0.65977569  0.84458305  0.23369094    -0.02350
C1644       C  0.63626461  0.84544487  0.26880335     0.04470
N1645       N  0.63540362  0.86730982  0.30889173     0.66970
H1646       H  0.59738870  0.82233482  0.29583972     0.15870
H1647       H  0.67700769  0.82283802  0.16752652     0.15580
N1648       N  0.63827582  0.77827721  0.15360345     0.74680
O1649       O  0.61084337  0.87619559  0.32435549    -0.38770
O1650       O  0.65862307  0.87502186  0.33327037    -0.38710
O1651       O  0.61458186  0.76667057  0.13592729    -0.39420
O1652       O  0.66242214  0.77207793  0.13294101    -0.39480
C1653       C  0.81213157  0.82803589  0.22882638    -0.11770
C1654       C  0.81169542  0.80769158  0.26911108     0.05240
C1655       C  0.79117473  0.81064534  0.30896306    -0.07050
C1656       C  0.76934521  0.83184208  0.30421545    -0.07800
C1657       C  0.76764371  0.84995807  0.26093657    -0.02350
C1658       C  0.79002268  0.84901685  0.22370299     0.04470
N1659       N  0.78935852  0.86707357  0.17853146     0.66970
H1660       H  0.82787405  0.82549186  0.19831189     0.15870
H1661       H  0.75251995  0.83329156  0.33319570     0.15580
N1662       N  0.79138844  0.79143276  0.35283728     0.74680
O1663       O  0.81326851  0.87583702  0.15856049    -0.38770
O1664       O  0.76537060  0.87105858  0.15469533    -0.38710
O1665       O  0.81511548  0.78012468  0.36809291    -0.39420
O1666       O  0.76836255  0.78755346  0.37901882    -0.39480
C1667       C  0.80928650  0.67619562  0.26828610    -0.11770
C1668       C  0.80667485  0.70014357  0.23477244     0.05240
C1669       C  0.78346430  0.70003330  0.19807578    -0.07050
C1670       C  0.76154501  0.67770091  0.19992741    -0.07800
C1671       C  0.76244121  0.65537248  0.23690153    -0.02350
C1672       C  0.78724915  0.65379096  0.27019651     0.04470
N1673       N  0.78949889  0.63118623  0.30846210     0.66970
H1674       H  0.82717667  0.67633375  0.29624976     0.15870
H1675       H  0.74298018  0.67820450  0.17336226     0.15580
N1676       N  0.78141327  0.72283685  0.15998018     0.74680
O1677       O  0.81450809  0.62152107  0.32075832    -0.38770
O1678       O  0.76730616  0.62346934  0.33445462    -0.38710
O1679       O  0.80450235  0.73470076  0.14167547    -0.39420
O1680       O  0.75658629  0.72953462  0.14145140    -0.39480
C1681       C  0.87274853  0.75276267  0.75320187     0.03630
C1682       C  0.85585960  0.72656724  0.74501063    -0.12520
C1683       C  0.82497595  0.72715707  0.74444858     0.01130
C1684       C  0.81101563  0.75378714  0.75414432    -0.11040
C1685       C  0.82754010  0.77996637  0.76232042     0.03620
C1686       C  0.85839553  0.77955764  0.76110631    -0.10470
H1687       H  0.86660180  0.70582826  0.73817824     0.09220
H1688       H  0.78707047  0.75424965  0.75455491     0.06750
H1689       H  0.87105575  0.79997248  0.76700235     0.06590
C1690       C  0.71287547  0.91117012  0.74089860     0.03630
C1691       C  0.73973684  0.89682859  0.74921423    -0.12520
C1692       C  0.74008194  0.86599439  0.75259804     0.01130
C1693       C  0.71365179  0.84952748  0.74774427    -0.11040
C1694       C  0.68681803  0.86336449  0.73928193     0.03620
C1695       C  0.68640314  0.89422612  0.73577282    -0.10470
H1696       H  0.76029416  0.90947623  0.75343393     0.09220
H1697       H  0.71399405  0.82562086  0.75037435     0.06750
H1698       H  0.66554955  0.90486979  0.72910899     0.06590
C1699       C  0.70980607  0.58857264  0.74323873     0.03630
C1700       C  0.73605294  0.60567111  0.73809415    -0.12520
C1701       C  0.73560094  0.63650061  0.74289741     0.01130
C1702       C  0.70894022  0.65017780  0.75297247    -0.11040
C1703       C  0.68269801  0.63356607  0.75803380     0.03620
C1704       C  0.68304657  0.60278423  0.75251451    -0.10470
H1705       H  0.75677449  0.59516268  0.73037674     0.09220
H1706       H  0.70856084  0.67405523  0.75652848     0.06750
H1707       H  0.66259966  0.59002706  0.75627519     0.06590
C1708       C  0.54978401  0.74789273  0.75462537     0.03630
C1709       C  0.56664881  0.77370277  0.74452320    -0.12520
C1710       C  0.59738943  0.77255919  0.74030072     0.01130
C1711       C  0.61127041  0.74550212  0.74674494    -0.11040
C1712       C  0.59479274  0.71963520  0.75689512     0.03620
C1713       C  0.56409962  0.72097459  0.76183081    -0.10470
H1714       H  0.55594412  0.79461368  0.73912262     0.09220
H1715       H  0.63513059  0.74457685  0.74425726     0.06750
H1716       H  0.55146234  0.70106959  0.77094789     0.06590
O1717       O  0.93822310  0.70732860  0.50388511    -0.71280
O1718       O  0.93551397  0.79129344  0.00527587    -0.71490
O1719       O  0.93677727  0.74935427  0.93179534    -0.71350
O1720       O  0.93700901  0.74909535  0.57713525    -0.71360
O1721       O  0.98506563  0.75199645  0.57786158    -0.71320
O1722       O  0.98482084  0.75257611  0.93274107    -0.71340
O1723       O  0.98349227  0.79414803  0.50585870    -0.71280
O1724       O  0.98618887  0.71039844  0.00416918    -0.71470
V1725       V  0.93779947  0.74935994  0.00454283     1.35240
V1726       V  0.98394101  0.75220534  0.00524336     1.35170
C1727       C  0.96272713  0.69454818  0.00308180     0.77960
C1728       C  0.95904705  0.80705118  0.00571362     0.78020
C1729       C  0.96080198  0.75091677  0.90773740     0.77890
C1730       C  0.96110484  0.75045865  0.60202148     0.77850
O1731       O  0.91820139  0.72769848  0.75235845    -0.71280
O1732       O  0.50169995  0.72535247  0.75713263    -0.71490
O1733       O  0.95894554  0.72670428  0.82737813    -0.71350
O1734       O  0.96068119  0.72641596  0.68213509    -0.71360
O1735       O  0.96188457  0.77449528  0.68241068    -0.71320
O1736       O  0.96325149  0.77468661  0.82759126    -0.71340
O1737       O  0.50436293  0.77330784  0.75457059    -0.71280
O1738       O  0.92074823  0.77566958  0.75535056    -0.71470
V1739       V  0.95996246  0.72746964  0.75477432     1.35240
V1740       V  0.96251191  0.77361706  0.75499488     1.35170
C1741       C  0.90522185  0.75204505  0.75357472     0.77960
C1742       C  0.51729833  0.74890436  0.75585172     0.78020
C1743       C  0.96092185  0.75076321  0.85200944     0.77890
C1744       C  0.96124885  0.75043938  0.65774449     0.77850
O1745       O  0.67127477  0.52485992  0.48481798    -0.71280
O1746       O  0.75533528  0.52194543  0.99361547    -0.71490
O1747       O  0.71502983  0.52344684  0.91656849    -0.71350
O1748       O  0.71159683  0.52367403  0.56154315    -0.71360
O1749       O  0.70822743  0.97564949  0.56127213    -0.71320
O1750       O  0.71204597  0.97540536  0.91613542    -0.71340
O1751       O  0.75204290  0.97400748  0.49383800    -0.71280
O1752       O  0.66838009  0.97691170  0.98414818    -0.71470
V1753       V  0.71323938  0.52255688  0.98902819     1.35320
V1754       V  0.71027571  0.97643952  0.98872597     1.35170
C1755       C  0.65547560  0.00133508  0.98286692     0.77960
C1756       C  0.76795094  0.99737739  0.99704515     0.78020
C1757       C  0.71366477  0.99943354  0.89181694     0.77890
C1758       C  0.70962648  0.99971847  0.58594137     0.77850
O1759       O  0.68673258  0.54059419  0.74116870    -0.71280
O1760       O  0.68816705  0.95693419  0.73794020    -0.71490
O1761       O  0.68862774  0.49797038  0.81199605    -0.71350
O1762       O  0.68635611  0.99933039  0.66665981    -0.71360
O1763       O  0.73442421  0.50044362  0.66586319    -0.71320
O1764       O  0.73664940  0.00142196  0.81105576    -0.71340
O1765       O  0.73616982  0.95904566  0.73909785    -0.71280
O1766       O  0.73466756  0.54282118  0.73808183    -0.71470
V1767       V  0.68839916  0.49878247  0.73936231     1.35240
V1768       V  0.73454658  0.50088693  0.73844532     1.35170
C1769       C  0.71042876  0.55600985  0.74038357     0.77960
C1770       C  0.71239695  0.94370298  0.73894520     0.78020
C1771       C  0.71300700  0.49954927  0.83606433     0.77890
C1772       C  0.71007611  0.49983426  0.64171582     0.77850
C1773       C  0.95809597  0.83971611  0.00611197     0.03630
C1774       C  0.98346578  0.85682538  0.99386709    -0.12520
C1775       C  0.98264933  0.88777278  0.99368328     0.01130
C1776       C  0.95659291  0.90166859  0.00767580    -0.11040
C1777       C  0.93133989  0.88498442  0.02134939     0.03620
C1778       C  0.93198159  0.85401963  0.01931564    -0.10470
H1779       H  0.50372612  0.84616072  0.98360455     0.09220
H1780       H  0.95606922  0.92560286  0.00849308     0.06750
H1781       H  0.91241718  0.84115768  0.02951516     0.06590
C1782       C  0.62275715  0.00224779  0.47925281     0.03630
C1783       C  0.60550450  0.97575759  0.47686250    -0.12520
C1784       C  0.57446808  0.97648004  0.47426960     0.01130
C1785       C  0.56093435  0.00396490  0.47327756    -0.11040
C1786       C  0.57762073  0.53039850  0.47457044     0.03620
C1787       C  0.60852061  0.52957010  0.47787657    -0.10470
H1788       H  0.61620583  0.95468060  0.47628072     0.09220
H1789       H  0.53701541  0.00490827  0.47179544     0.06750
H1790       H  0.62130848  0.55014371  0.47905738     0.06590
C1791       C  0.96410315  0.66202015  0.49845862     0.03630
C1792       C  0.99104382  0.64915994  0.48557422    -0.12520
C1793       C  0.99194742  0.61902538  0.47419424     0.01130
C1794       C  0.96592695  0.60183588  0.97574021    -0.11040
C1795       C  0.93990845  0.61296221  0.99640272     0.03620
C1796       C  0.93875536  0.64361822  0.00568812    -0.10470
H1797       H  0.51118506  0.66254126  0.48325416     0.09220
H1798       H  0.96682299  0.57875436  0.96488295     0.06750
H1799       H  0.91863218  0.65306178  0.01957213     0.06590
C1800       C  0.80008039  0.99581768  0.00862141     0.03630
C1801       C  0.81165359  0.96911931  0.02656203    -0.12520
C1802       C  0.84094226  0.96793391  0.04438047     0.01130
C1803       C  0.85692096  0.99481364  0.04971431    -0.11040
C1804       C  0.84782407  0.52116559  0.02629497     0.03620
C1805       C  0.81896735  0.52104912  0.00486662    -0.10470
H1806       H  0.79750820  0.94960033  0.02809583     0.09220
H1807       H  0.87761030  0.99464538  0.07022304     0.06750
H1808       H  0.81083926  0.54018291  0.98528043     0.06590
C1809       C  0.88542013  0.59840015  0.50473644    -0.11770
C1810       C  0.91545781  0.59152571  0.01031452     0.05240
C1811       C  0.92229972  0.56281668  0.02683114    -0.07050
C1812       C  0.90040356  0.54067602  0.02562000    -0.07800
C1813       C  0.87001622  0.54687573  0.02185611    -0.02350
C1814       C  0.86266376  0.57701329  0.51394869     0.04470
N1815       N  0.83286505  0.58679327  0.51761207     0.66970
H1816       H  0.87952211  0.62066493  0.49464799     0.15870
H1817       H  0.90801679  0.51842530  0.02895455     0.15580
N1818       N  0.95105206  0.55603473  0.04732319     0.74680
O1819       O  0.81755800  0.57966006  0.55588929    -0.38770
O1820       O  0.82359050  0.60636232  0.98759510    -0.38710
O1821       O  0.96441175  0.57417525  0.57695615    -0.39420
O1822       O  0.96135279  0.53059288  0.04155742    -0.39480
C1823       C  0.53842641  0.60051176  0.51070102    -0.11770
C1824       C  0.52014432  0.60372590  0.46736439     0.05240
C1825       C  0.52477509  0.58611274  0.92359126    -0.07050
C1826       C  0.54557870  0.56372341  0.92626486    -0.07800
C1827       C  0.56172567  0.55848197  0.47136225    -0.02350
C1828       C  0.55894287  0.57774714  0.51378323     0.04470
N1829       N  0.57469107  0.57334239  0.56132475     0.66970
H1830       H  0.53442441  0.61377973  0.54441580     0.15870
H1831       H  0.54824906  0.54918447  0.89367931     0.15580
N1832       N  0.00751106  0.58971145  0.87741251     0.74680
O1833       O  0.58044520  0.59504884  0.59064717    -0.38770
O1834       O  0.58000025  0.54766247  0.57699534    -0.38710
O1835       O  0.49677507  0.61440611  0.86656350    -0.39420
O1836       O  0.00467347  0.56880985  0.84540799    -0.39480
C1837       C  0.88123867  0.93918263  0.08623768    -0.11770
C1838       C  0.85724037  0.93951850  0.05128101     0.05240
C1839       C  0.85479288  0.91612199  0.51498406    -0.07050
C1840       C  0.87844878  0.89704813  0.50838057    -0.07800
C1841       C  0.90444452  0.90035333  0.03775759    -0.02350
C1842       C  0.90525079  0.92061495  0.07909539     0.04470
N1843       N  0.93070435  0.92360149  0.11256130     0.66970
H1844       H  0.88237179  0.95501669  0.11741623     0.15870
H1845       H  0.87716759  0.88066925  0.47799342     0.15580
N1846       N  0.82910523  0.91184839  0.48317965     0.74680
O1847       O  0.93737521  0.94822933  0.13312063    -0.38770
O1848       O  0.94569046  0.90139138  0.62399784    -0.38710
O1849       O  0.83131089  0.91428425  0.93530791    -0.39420
O1850       O  0.80678518  0.89843743  0.50122611    -0.39480
C1851       C  0.53392266  0.90559467  0.51357576    -0.11770
C1852       C  0.50917140  0.90604556  0.98070071     0.05240
C1853       C  0.50866055  0.92664429  0.94016008    -0.07050
C1854       C  0.53169718  0.94792439  0.93665818    -0.07800
C1855       C  0.55518358  0.94924198  0.97241114    -0.02350
C1856       C  0.55690628  0.92687855  0.50972621     0.04470
N1857       N  0.58036855  0.92694333  0.54682144     0.66970
H1858       H  0.53452457  0.88975758  0.54452179     0.15870
H1859       H  0.53081117  0.96440279  0.90677846     0.15580
N1860       N  0.98476474  0.92670269  0.90316507     0.74680
O1861       O  0.57563560  0.93580169  0.59173717    -0.38770
O1862       O  0.60309496  0.91224949  0.03817427    -0.38710
O1863       O  0.97879548  0.95008220  0.37942977    -0.39420
O1864       O  0.97138492  0.90290556  0.89045056    -0.39480
C1865       C  0.63396959  0.64921279  0.72646880    -0.11770
C1866       C  0.65499781  0.64934679  0.76629168     0.05240
C1867       C  0.65226218  0.66915435  0.80788770    -0.07050
C1868       C  0.63010002  0.69020659  0.80594461    -0.07800
C1869       C  0.61070404  0.69182947  0.76384640    -0.02350
C1870       C  0.61178921  0.67030306  0.72452679     0.04470
N1871       N  0.59247914  0.67105712  0.68043096     0.66970
H1872       H  0.63619161  0.63395131  0.69475890     0.15870
H1873       H  0.62897373  0.70665855  0.83607236     0.15580
N1874       N  0.67264841  0.66913969  0.85073726     0.74680
O1875       O  0.60182999  0.66367098  0.63703092    -0.38770
O1876       O  0.56520921  0.67509550  0.68560516    -0.38710
O1877       O  0.67716018  0.69226368  0.87723029    -0.39420
O1878       O  0.68461186  0.64554998  0.86461631    -0.39480
C1879       C  0.61423730  0.82299432  0.76674360    -0.11770
C1880       C  0.61562134  0.79961795  0.73141818     0.05240
C1881       C  0.63753037  0.80040132  0.69336219    -0.07050
C1882       C  0.65940768  0.82283014  0.69526884    -0.07800
C1883       C  0.65977569  0.84458305  0.73369093    -0.02350
C1884       C  0.63626461  0.84544487  0.76880333     0.04470
N1885       N  0.63540363  0.86730982  0.80889172     0.66970
H1886       H  0.59738870  0.82233482  0.79583971     0.15870
H1887       H  0.67700769  0.82283802  0.66752651     0.15580
N1888       N  0.63827582  0.77827721  0.65360344     0.74680
O1889       O  0.61084338  0.87619559  0.82435547    -0.38770
O1890       O  0.65862307  0.87502185  0.83327036    -0.38710
O1891       O  0.61458186  0.76667057  0.63592728    -0.39420
O1892       O  0.66242214  0.77207793  0.63294099    -0.39480
C1893       C  0.81213158  0.82803589  0.72882638    -0.11770
C1894       C  0.81169542  0.80769158  0.76911108     0.05240
C1895       C  0.79117472  0.81064533  0.80896305    -0.07050
C1896       C  0.76934521  0.83184208  0.80421544    -0.07800
C1897       C  0.76764371  0.84995806  0.76093657    -0.02350
C1898       C  0.79002269  0.84901685  0.72370299     0.04470
N1899       N  0.78935852  0.86707357  0.67853146     0.66970
H1900       H  0.82787406  0.82549186  0.69831189     0.15870
H1901       H  0.75251995  0.83329156  0.83319569     0.15580
N1902       N  0.79138844  0.79143275  0.85283728     0.74680
O1903       O  0.81326852  0.87583702  0.65856049    -0.38770
O1904       O  0.76537061  0.87105859  0.65469532    -0.38710
O1905       O  0.81511548  0.78012467  0.86809290    -0.39420
O1906       O  0.76836255  0.78755345  0.87901880    -0.39480
C1907       C  0.80928650  0.67619562  0.76828611    -0.11770
C1908       C  0.80667485  0.70014357  0.73477244     0.05240
C1909       C  0.78346430  0.70003329  0.69807578    -0.07050
C1910       C  0.76154501  0.67770091  0.69992741    -0.07800
C1911       C  0.76244121  0.65537248  0.73690154    -0.02350
C1912       C  0.78724915  0.65379096  0.77019652     0.04470
N1913       N  0.78949889  0.63118623  0.80846211     0.66970
H1914       H  0.82717667  0.67633375  0.79624977     0.15870
H1915       H  0.74298019  0.67820450  0.67336226     0.15580
N1916       N  0.78141327  0.72283684  0.65998018     0.74680
O1917       O  0.81450809  0.62152108  0.82075835    -0.38770
O1918       O  0.76730615  0.62346934  0.83445463    -0.38710
O1919       O  0.80450236  0.73470075  0.64167547    -0.39420
O1920       O  0.75658630  0.72953461  0.64145138    -0.39480
loop_ 
_geom_bond_atom_site_label_1 
_geom_bond_atom_site_label_2 
_geom_bond_distance 
_geom_bond_site_symmetry_2 
_ccdc_geom_bond_type 
C1            C2   1.407       .  A
C1            C6   1.407       .  A
C1           C61   1.471       .  S
C2            C3   1.399       .  A
C2            H7   1.084       .  S
C3            C4   1.399       .  A
C3          C228   1.477       .  S
C4            C5   1.398       .  A
C4            H8   1.085       .  S
C5            C6   1.398       .  A
C5          C214   1.473       .  S
C6            H9   1.084       .  S
C10          C11   1.408       .  A
C10          C15   1.410       .  A
C10          C90   1.474       .  S
C11          C12   1.399       .  A
C11          H16   1.083       .  S
C12          C13   1.396       .  A
C12         C217   1.474       .  S
C13          C14   1.397       .  A
C13          H17   1.085       .  S
C14          C15   1.401       .  A
C14         C203   1.477       .  S
C15          H18   1.084       .  S
C19          C20   1.409       .  A
C19          C24   1.410       .  A
C19          C89   1.476       .  S
C20          C21   1.401       .  A
C20          H25   1.084       .  S
C21          C22   1.398       .  A
C21         C231   1.477       .  S
C22          C23   1.397       .  A
C22          H26   1.085       .  S
C23          C24   1.401       .  A
C23         C186   1.477       .  S
C24          H27   1.083       .  S
C28          C29   1.406       .  A
C28          C33   1.407       .  A
C28          C62   1.473       .  S
C29          C30   1.399       .  A
C29          H34   1.084       .  S
C30          C31   1.401       .  A
C30         C200   1.479       .  S
C31          C32   1.400       .  A
C31          H35   1.085       .  S
C32          C33   1.400       .  A
C32         C189   1.477       .  S
C33          H36   1.083       .  S
O37         V285   1.903       .  S
O37         C287   1.265       .  A
O38          V45   1.904       .  S
O38          C48   1.266       .  A
O39          V45   1.902       .  S
O39          C49   1.264       .  A
O40         V285   1.899       .  S
O40          C50   1.263       .  A
O41         V286   1.898       .  S
O41          C50   1.262       .  A
O42          V46   1.896       .  S
O42          C49   1.262       .  A
O43         V286   1.899       .  S
O43         C288   1.265       .  A
O44          V46   1.898       .  S
O44          C47   1.265       .  A
V45         O277   1.903       .  S
V45         O280   1.899       .  S
V45          V46   2.089       .  T
V46         O281   1.898       .  S
V46         O283   1.899       .  S
C47         C351   1.480       .  S
C47         O277   1.265       .  A
C48          C93   1.480       .  S
C48         O283   1.265       .  A
C49          C63   1.457       .  S
C50          C64   1.457       .  S
O51          V59   1.891       .  S
O51          C61   1.263       .  A
O52        V1019   1.894   1_455  S
O52          C62   1.264       .  A
O53          V59   1.900       .  S
O53          C63   1.263       .  A
O54          V59   1.900       .  S
O54          C64   1.263       .  A
O55          V60   1.898       .  S
O55          C64   1.262       .  A
O56          V60   1.898       .  S
O56          C63   1.262       .  A
O57        V1020   1.895   1_455  S
O57          C62   1.264       .  A
O58          V60   1.895       .  S
O58          C61   1.264       .  A
V59        O1012   1.894       .  S
V59          V60   2.089       .  T
V60        O1017   1.895       .  S
O65         V313   1.907       .  S
O65         C795   1.267       .  A
O66          V73   1.908       .  S
O66         C556   1.267   1_545  A
O67          V73   1.898       .  S
O67         C557   1.262   1_545  A
O68         V313   1.898   1_554  S
O68         C558   1.262   1_545  A
O69         V314   1.900   1_554  S
O69          C78   1.263       .  A
O70          V74   1.901       .  S
O70          C77   1.263       .  A
O71         V314   1.900       .  S
O71         C316   1.265       .  A
O72          V74   1.899       .  S
O72          C75   1.264       .  A
V73         O305   1.907       .  S
V73         O308   1.898       .  S
V73         V554   2.088   1_545  T
V74         O309   1.900       .  S
V74         O311   1.900       .  S
V74         V553   2.088       .  T
C75         C342   1.484       .  S
C75         O785   1.267       .  A
C76         C120   1.485       .  S
C76         O546   1.267       .  A
C76         O311   1.265       .  A
C77         C571   1.457       .  S
C77         O547   1.262       .  A
C78         C572   1.458       .  S
C78         O548   1.262       .  A
O79          V87   1.896   1_545  S
O79          C89   1.264       .  A
O80         V567   1.894       .  S
O80          C90   1.263       .  A
O81          V87   1.899       .  S
O81          C91   1.263       .  A
O82         V567   1.902       .  S
O82         C572   1.263       .  A
O83          V88   1.897       .  S
O83          C92   1.263   1_545  A
O84         V568   1.899       .  S
O84         C571   1.262       .  A
O85         V568   1.897       .  S
O85          C90   1.265       .  A
O86          V88   1.898       .  S
O86          C89   1.265       .  A
V87         O560   1.894       .  S
V87         O562   1.902       .  S
V87          V88   2.089   1_565  T
V88         O564   1.899       .  S
V88         O565   1.897   1_545  S
C91         C557   1.457       .  S
C91         O564   1.262   1_565  A
C92         C558   1.458       .  S
C92         O562   1.263       .  A
C93          C94   1.409       .  A
C93          C98   1.409       .  A
C94          C95   1.402       .  A
C94        H1059   1.084       .  S
C95          C96   1.403       .  A
C95        C1132   1.483       .  S
C96          C97   1.404       .  A
C96         H100   1.084       .  S
C97          C98   1.403       .  A
C97         C161   1.485       .  S
C98         H101   1.084       .  S
H99        C1054   1.084   1_455  S
C102        C103   1.414       .  A
C102        C587   1.410       .  A
C102        C315   1.484       .  S
C103        C104   1.407       .  A
C103        H108   1.082       .  S
C104        C105   1.401       .  A
C104        C415   1.492       .  S
C105        C586   1.398       .  A
C105        H109   1.085       .  S
C106        C107   1.402       .  A
C106        C585   1.398       .  A
C106        C147   1.479       .  S
C107        C582   1.410       .  A
C107        H110   1.083       .  S
C111        C112   1.409       .  A
C111        C356   1.415   1_556  A
C111        C287   1.480   1_556  S
C112        C113   1.396       .  A
C112       H1077   1.083       .  S
C113        C354   1.395       .  A
C113       C1104   1.480       .  S
C114        C115   1.406       .  A
C114        C353   1.395       .  A
C114        H118   1.083       .  S
C115        C116   1.410       .  A
C115        C130   1.502       .  S
C116        C351   1.415       .  A
C116        H119   1.082       .  S
H117       C1072   1.083   1_455  S
C120        C121   1.410       .  A
C120        C605   1.413       .  A
C121        C122   1.402       .  A
C121        H126   1.078       .  S
C122        C123   1.404       .  A
C122        C158   1.510       .  S
C123        C604   1.412       .  A
C123        H127   1.073       .  S
C124        C125   1.414       .  A
C124        C603   1.412   1_545  A
C124        C133   1.523       .  S
C125        C600   1.413   1_545  A
C125        H128   1.079       .  S
C129        C134   1.418       .  A
C129        C370   1.409       .  A
C129        H136   1.082   1_554  S
C130        C131   1.412       .  A
C130        C369   1.409       .  A
C131        C132   1.390       .  A
C131        N138   1.442       .  S
C132        C133   1.413       .  A
C132        H137   1.077       .  S
C133        C374   1.428       .  A
C134        C373   1.428       .  A
C134        N135   1.435       .  S
N135        O139   1.263       .  A
N135        O380   1.263   1_554  A
N138        O142   1.263       .  A
N138        O381   1.263       .  A
O140        N375   1.263       .  A
O141        N378   1.263       .  A
C143        C144   1.405   1_554  A
C143        C148   1.407       .  A
C143        H150   1.084       .  S
C144        C385   1.413       .  A
C144       C1073   1.480   1_455  S
C145        C146   1.403       .  A
C145        C384   1.413       .  A
C145       N1112   1.442       .  S
C146        C387   1.404       .  A
C146        H151   1.084       .  S
C147        C148   1.416   1_556  A
C147        C386   1.404       .  A
C148        N149   1.442       .  S
N149        O153   1.263       .  A
N149        O154   1.262       .  A
N152       C1105   1.442       .  S
N152        O156   1.263       .  A
N152       O1115   1.263       .  A
O155       N1112   1.263   1_655  A
C157        C158   1.411       .  A
C157        C162   1.405       .  A
C157        H164   1.083       .  S
C158        C399   1.420       .  A
C159        C160   1.405       .  A
C159        C398   1.420       .  A
C159        N166   1.429   1_554  S
C160        C401   1.401       .  A
C160        H165   1.084   1_554  S
C161        C162   1.413       .  A
C161        C400   1.401       .  A
C162        N163   1.441       .  S
N163        O167   1.263       .  A
N163        O408   1.263       .  A
N166        O170   1.262   1_556  A
N166        O409   1.262       .  A
O168        N403   1.263       .  A
O169        N406   1.262       .  A
C171        C176   1.404       .  A
C171        C412   1.404   1_554  A
C171        H178   1.084       .  S
C172        C173   1.415       .  A
C172        C411   1.404       .  A
C172       C1055   1.483   1_455  S
C173        C174   1.405       .  A
C173       N1140   1.442   1_455  S
C174        C175   1.406       .  A
C174        H179   1.084       .  S
C175        C416   1.412       .  A
C175        C344   1.492       .  S
C176        C415   1.412   1_554  A
C176        N177   1.429       .  S
N177        O181   1.262       .  A
N177        O422   1.262       .  A
N180       C1133   1.442       .  S
N180        O184   1.263       .  A
N180        O423   1.263       .  A
O182        N417   1.262       .  A
O183        N420   1.263       .  A
C185        C186   1.401       .  A
C185        C190   1.404       .  A
C185        H192   1.084       .  S
C186        C187   1.415       .  A
C187        C188   1.402       .  A
C187        N194   1.442       .  S
C188        C189   1.402       .  A
C188        H193   1.084       .  S
C189        C190   1.415       .  A
C190        N191   1.439       .  S
N191        O195   1.263       .  A
N191        O196   1.261       .  A
N194        O197   1.263       .  A
N194        O198   1.263       .  A
C199        C200   1.404       .  A
C199        C204   1.405       .  A
C199        H206   1.084       .  S
C200        C201   1.413       .  A
C201        C202   1.399       .  A
C201        N208   1.441       .  S
C202        C203   1.403       .  A
C202        H207   1.084       .  S
C203        C204   1.415       .  A
C204        N205   1.440       .  S
N205        O209   1.263       .  A
N205        O210   1.262       .  A
N208        O211   1.263       .  A
N208        O212   1.263       .  A
C213        C214   1.402       .  A
C213        C218   1.403       .  A
C213        H220   1.084       .  S
C214        C215   1.413       .  A
C215        C216   1.400       .  A
C215        N222   1.443       .  S
C216        C217   1.403       .  A
C216        H221   1.084       .  S
C217        C218   1.415       .  A
C218        N219   1.440       .  S
N219        O223   1.263       .  A
N219        O224   1.262       .  A
N222        O225   1.263       .  A
N222        O226   1.263       .  A
C227        C228   1.403       .  A
C227        C232   1.405       .  A
C227        H234   1.084       .  S
C228        C229   1.413       .  A
C229        C230   1.399       .  A
C229        N236   1.442       .  S
C230        C231   1.403       .  A
C230        H235   1.084       .  S
C231        C232   1.415       .  A
C232        N233   1.439       .  S
N233        O237   1.263       .  A
N233        O238   1.262       .  A
N236        O239   1.263       .  A
N236        O240   1.263       .  A
C241        C242   1.407       .  A
C241        C246   1.407       .  A
C241        C301   1.471       .  S
C242        C243   1.399       .  A
C242        H247   1.084       .  S
C243        C244   1.399       .  A
C243        C468   1.477       .  S
C244        C245   1.398       .  A
C244        H248   1.085       .  S
C245        C246   1.398       .  A
C245        C454   1.473       .  S
C246        H249   1.084       .  S
C250        C251   1.408       .  A
C250        C255   1.410       .  A
C250        C330   1.474       .  S
C251        C252   1.399       .  A
C251        H256   1.083       .  S
C252        C253   1.396       .  A
C252        C457   1.474       .  S
C253        C254   1.397       .  A
C253        H257   1.085       .  S
C254        C255   1.401       .  A
C254        C443   1.477       .  S
C255        H258   1.084       .  S
C259        C260   1.409       .  A
C259        C264   1.410       .  A
C259        C329   1.476       .  S
C260        C261   1.401       .  A
C260        H265   1.084       .  S
C261        C262   1.398       .  A
C261        C471   1.477       .  S
C262        C263   1.397       .  A
C262        H266   1.085       .  S
C263        C264   1.401       .  A
C263        C426   1.477       .  S
C264        H267   1.083       .  S
C268        C269   1.406       .  A
C268        C273   1.407       .  A
C268        C302   1.473       .  S
C269        C270   1.399       .  A
C269        H274   1.084       .  S
C270        C271   1.401       .  A
C270        C440   1.479       .  S
C271        C272   1.400       .  A
C271        H275   1.085       .  S
C272        C273   1.400       .  A
C272        C429   1.477       .  S
C273        H276   1.083       .  S
O278        V285   1.904       .  S
O278        C288   1.266       .  A
O279        V285   1.902   1_556  S
O279        C289   1.264       .  A
O280        C290   1.263       .  A
O281        C290   1.262       .  A
O282        V286   1.896   1_556  S
O282        C289   1.262       .  A
O284        V286   1.898       .  S
O284        C287   1.265       .  A
V285        V286   2.089       .  T
C288        C333   1.480       .  S
C289        C303   1.457       .  S
C290        C304   1.457       .  S
O291        V299   1.891       .  S
O291        C301   1.263       .  A
O292       V1259   1.894   1_455  S
O292        C302   1.264       .  A
O293        V299   1.900       .  S
O293        C303   1.263       .  A
O294        V299   1.900       .  S
O294        C304   1.263       .  A
O295        V300   1.898       .  S
O295        C304   1.262       .  A
O296        V300   1.898       .  S
O296        C303   1.262       .  A
O297       V1260   1.895   1_455  S
O297        C302   1.264       .  A
O298        V300   1.895       .  S
O298        C301   1.264       .  A
V299       O1252   1.894       .  S
V299        V300   2.089       .  T
V300       O1257   1.895       .  S
O305        C555   1.267       .  A
O306        V313   1.908       .  S
O306        C796   1.267   1_545  A
O307        V313   1.898       .  S
O307        C797   1.262   1_545  A
O308        C798   1.262   1_545  A
O309        C318   1.263       .  A
O310        V314   1.901       .  S
O310        C317   1.263       .  A
O312        V314   1.899       .  S
O312        C315   1.264       .  A
V313        V794   2.088   1_545  T
V314        V793   2.088       .  T
C315        O545   1.267       .  A
C316        C360   1.485   1_556  S
C316        O786   1.267       .  A
C317        C811   1.457       .  S
C317        O787   1.262       .  A
C318        C812   1.458       .  S
C318        O788   1.262       .  A
O319        V327   1.896   1_545  S
O319        C329   1.264       .  A
O320        V807   1.894       .  S
O320        C330   1.263       .  A
O321        V327   1.899       .  S
O321        C331   1.263       .  A
O322        V807   1.902       .  S
O322        C812   1.263       .  A
O323        V328   1.897       .  S
O323        C332   1.263   1_545  A
O324        V808   1.899       .  S
O324        C811   1.262       .  A
O325        V808   1.897       .  S
O325        C330   1.265       .  A
O326        V328   1.898       .  S
O326        C329   1.265       .  A
V327        O800   1.894       .  S
V327        O802   1.902       .  S
V327        V328   2.089   1_565  T
V328        O804   1.899       .  S
V328        O805   1.897   1_545  S
C331        C797   1.457       .  S
C331        O804   1.262   1_565  A
C332        C798   1.458       .  S
C332        O802   1.263       .  A
C333        C334   1.409   1_554  A
C333        C338   1.409       .  A
C334        C335   1.402       .  A
C334       H1299   1.084       .  S
C335        C336   1.403   1_556  A
C335       C1372   1.483       .  S
C336        C337   1.404       .  A
C336        H340   1.084       .  S
C337        C338   1.403       .  A
C337        C401   1.485       .  S
C338        H341   1.084       .  S
H339       C1294   1.084   1_455  S
C342        C343   1.414       .  A
C342        C827   1.410       .  A
C343        C344   1.407       .  A
C343        H348   1.082       .  S
C344        C345   1.401       .  A
C345        C826   1.398       .  A
C345        H349   1.085       .  S
C346        C825   1.398       .  A
C346        C347   1.402       .  A
C346        C387   1.479       .  S
C347        C822   1.410       .  A
C347        H350   1.083       .  S
C351        C352   1.409       .  A
C352        C353   1.396       .  A
C352       H1317   1.083       .  S
C353       C1344   1.480       .  S
C354        C355   1.406       .  A
C354        H358   1.083       .  S
C355        C356   1.410   1_556  A
C355        C370   1.502   1_556  S
C356        H359   1.082       .  S
H357       C1312   1.083   1_455  S
C360        C361   1.410       .  A
C360        C845   1.413       .  A
C361        C362   1.402       .  A
C361        H366   1.078       .  S
C362        C363   1.404       .  A
C362        C398   1.510       .  S
C363        C844   1.412       .  A
C363        H367   1.073       .  S
C364        C843   1.412   1_545  A
C364        C365   1.414       .  A
C364        C373   1.523       .  S
C365        C840   1.413   1_545  A
C365        H368   1.079   1_554  S
C369        C374   1.418       .  A
C369        H376   1.082       .  S
C370        C371   1.412       .  A
C371        C372   1.390       .  A
C371        N378   1.442       .  S
C372        C373   1.413       .  A
C372        H377   1.077       .  S
C374        N375   1.435       .  S
N375        O379   1.263       .  A
N378        O382   1.263       .  A
C383        C384   1.405       .  A
C383        C388   1.407       .  A
C383        H390   1.084       .  S
C384       C1313   1.480   1_455  S
C385        C386   1.403       .  A
C385       N1352   1.442       .  S
C386        H391   1.084       .  S
C387        C388   1.416       .  A
C388        N389   1.442       .  S
N389        O393   1.263       .  A
N389        O394   1.262       .  A
N392       C1345   1.442       .  S
N392       O1355   1.263       .  A
N392        O396   1.263       .  A
O395       N1352   1.263   1_655  A
C397        C398   1.411       .  A
C397        C402   1.405       .  A
C397        H404   1.083       .  S
C399        C400   1.405       .  A
C399        N406   1.429       .  S
C400        H405   1.084       .  S
C401        C402   1.413       .  A
C402        N403   1.441       .  S
N403        O407   1.263       .  A
N406        O410   1.262       .  A
C411        C416   1.404       .  A
C411        H418   1.084       .  S
C412        C413   1.415       .  A
C412       C1295   1.483   1_455  S
C413        C414   1.405       .  A
C413       N1380   1.442   1_455  S
C414        C415   1.406       .  A
C414        H419   1.084       .  S
C416        N417   1.429       .  S
N417        O421   1.262       .  A
N420       C1373   1.442       .  S
N420        O424   1.263       .  A
C425        C426   1.401       .  A
C425        C430   1.404       .  A
C425        H432   1.084       .  S
C426        C427   1.415       .  A
C427        C428   1.402       .  A
C427        N434   1.442       .  S
C428        C429   1.402       .  A
C428        H433   1.084       .  S
C429        C430   1.415       .  A
C430        N431   1.439       .  S
N431        O435   1.263       .  A
N431        O436   1.261       .  A
N434        O437   1.263       .  A
N434        O438   1.263       .  A
C439        C440   1.404       .  A
C439        C444   1.405       .  A
C439        H446   1.084       .  S
C440        C441   1.413       .  A
C441        C442   1.399       .  A
C441        N448   1.441       .  S
C442        C443   1.403       .  A
C442        H447   1.084       .  S
C443        C444   1.415       .  A
C444        N445   1.440       .  S
N445        O449   1.263       .  A
N445        O450   1.262       .  A
N448        O451   1.263       .  A
N448        O452   1.263       .  A
C453        C454   1.402       .  A
C453        C458   1.403       .  A
C453        H460   1.084       .  S
C454        C455   1.413       .  A
C455        C456   1.400       .  A
C455        N462   1.443       .  S
C456        C457   1.403       .  A
C456        H461   1.084       .  S
C457        C458   1.415       .  A
C458        N459   1.440       .  S
N459        O463   1.263       .  A
N459        O464   1.262       .  A
N462        O465   1.263       .  A
N462        O466   1.263       .  A
C467        C468   1.403       .  A
C467        C472   1.405       .  A
C467        H474   1.084       .  S
C468        C469   1.413       .  A
C469        C470   1.399       .  A
C469        N476   1.442       .  S
C470        C471   1.403       .  A
C470        H475   1.084       .  S
C471        C472   1.415       .  A
C472        N473   1.439       .  S
N473        O477   1.263       .  A
N473        O478   1.262       .  A
N476        O479   1.263       .  A
N476        O480   1.263       .  A
C481        C482   1.407       .  A
C481        C486   1.407       .  A
C481        C541   1.471       .  S
C482        C483   1.399       .  A
C482        H487   1.084       .  S
C483        C484   1.399       .  A
C483        C708   1.477       .  S
C484        C485   1.398       .  A
C484        H488   1.085       .  S
C485        C486   1.398       .  A
C485        C694   1.473       .  S
C486        H489   1.084       .  S
C490        C491   1.408       .  A
C490        C495   1.410       .  A
C490        C570   1.474       .  S
C491        C492   1.399       .  A
C491        H496   1.083       .  S
C492        C493   1.396       .  A
C492        C697   1.474       .  S
C493        C494   1.397       .  A
C493        H497   1.085       .  S
C494        C495   1.401       .  A
C494        C683   1.477       .  S
C495        H498   1.084       .  S
C499        C500   1.409       .  A
C499        C504   1.410       .  A
C499        C569   1.476       .  S
C500        C501   1.401       .  A
C500        H505   1.084       .  S
C501        C502   1.398       .  A
C501        C711   1.477       .  S
C502        C503   1.397       .  A
C502        H506   1.085       .  S
C503        C504   1.401       .  A
C503        C666   1.477       .  S
C504        H507   1.083       .  S
C508        C509   1.406       .  A
C508        C513   1.407       .  A
C508        C542   1.473       .  S
C509        C510   1.399       .  A
C509        H514   1.084       .  S
C510        C511   1.401       .  A
C510        C680   1.479       .  S
C511        C512   1.400       .  A
C511        H515   1.085       .  S
C512        C513   1.400       .  A
C512        C669   1.477       .  S
C513        H516   1.083       .  S
O517        V765   1.903       .  S
O517        C767   1.265       .  A
O518        V525   1.904       .  S
O518        C528   1.266       .  A
O519        V525   1.902       .  S
O519        C529   1.264       .  A
O520        V765   1.899       .  S
O520        C530   1.263       .  A
O521        V766   1.898       .  S
O521        C530   1.262       .  A
O522        V526   1.896       .  S
O522        C529   1.262       .  A
O523        V766   1.899       .  S
O523        C768   1.265       .  A
O524        V526   1.898       .  S
O524        C527   1.265       .  A
V525        O757   1.903       .  S
V525        O760   1.899       .  S
V525        V526   2.089       .  T
V526        O761   1.898       .  S
V526        O763   1.899       .  S
C527        C831   1.480       .  S
C527        O757   1.265       .  A
C528        C573   1.480       .  S
C528        O763   1.265       .  A
C529        C543   1.457       .  S
C530        C544   1.457       .  S
O531        V539   1.891       .  S
O531        C541   1.263       .  A
O532       V1499   1.894   1_455  S
O532        C542   1.264       .  A
O533        V539   1.900       .  S
O533        C543   1.263       .  A
O534        V539   1.900       .  S
O534        C544   1.263       .  A
O535        V540   1.898       .  S
O535        C544   1.262       .  A
O536        V540   1.898       .  S
O536        C543   1.262       .  A
O537       V1500   1.895   1_455  S
O537        C542   1.264       .  A
O538        V540   1.895       .  S
O538        C541   1.264       .  A
V539       O1492   1.894       .  S
V539        V540   2.089       .  T
V540       O1497   1.895       .  S
O545        V793   1.907       .  S
O546        V553   1.908       .  S
O547        V553   1.898       .  S
O548        V793   1.898   1_554  S
O549        V794   1.900   1_554  S
O549        C558   1.263       .  A
O550        V554   1.901       .  S
O550        C557   1.263       .  A
O551        V794   1.900       .  S
O551        C796   1.265       .  A
O552        V554   1.899       .  S
O552        C555   1.264   1_565  A
V553        O785   1.907       .  S
V553        O788   1.898       .  S
V554        O789   1.900       .  S
V554        O791   1.900       .  S
C555        C822   1.484       .  S
C556        C600   1.485       .  S
C556        O791   1.265       .  A
O559        V567   1.896       .  S
O559        C569   1.264       .  A
O560        C570   1.263       .  A
O561        V567   1.899       .  S
O561        C571   1.263       .  A
O563        V568   1.897       .  S
O563        C572   1.263       .  A
O565        C570   1.265       .  A
O566        V568   1.898       .  S
O566        C569   1.265       .  A
V567        V568   2.089       .  T
C573        C574   1.409       .  A
C573        C578   1.409       .  A
C574        C575   1.402       .  A
C574       H1539   1.084       .  S
C575        C576   1.403       .  A
C575       C1612   1.483       .  S
C576        C577   1.404       .  A
C576        H580   1.084       .  S
C577        C578   1.403       .  A
C577        C641   1.485       .  S
C578        H581   1.084       .  S
H579       C1534   1.084   1_455  S
C582        C583   1.414   1_545  A
C582        C795   1.484       .  S
C583        C584   1.407       .  A
C583        H588   1.082       .  S
C584        C585   1.401   1_565  A
C584        C895   1.492       .  S
C585        H589   1.085       .  S
C586        C587   1.402       .  A
C586        C627   1.479       .  S
C587        H590   1.083       .  S
C591        C592   1.409       .  A
C591        C836   1.415   1_556  A
C591        C767   1.480   1_556  S
C592        C593   1.396       .  A
C592       H1557   1.083       .  S
C593        C834   1.395       .  A
C593       C1584   1.480       .  S
C594        C833   1.395       .  A
C594        C595   1.406       .  A
C594        H598   1.083       .  S
C595        C596   1.410       .  A
C595        C610   1.502       .  S
C596        C831   1.415       .  A
C596        H599   1.082       .  S
H597       C1552   1.083   1_455  S
C600        C601   1.410       .  A
C601        C602   1.402       .  A
C601        H606   1.078       .  S
C602        C603   1.404       .  A
C602        C638   1.510       .  S
C603        H607   1.073       .  S
C604        C605   1.414       .  A
C604        C613   1.523       .  S
C605        H608   1.079       .  S
C609        C850   1.409       .  A
C609        C614   1.418       .  A
C609        H616   1.082   1_554  S
C610        C849   1.409       .  A
C610        C611   1.412       .  A
C611        C612   1.390       .  A
C611        N618   1.442       .  S
C612        C613   1.413       .  A
C612        H617   1.077       .  S
C613        C854   1.428       .  A
C614        C853   1.428       .  A
C614        N615   1.435       .  S
N615        O619   1.263       .  A
N615        O860   1.263   1_554  A
N618        O861   1.263       .  A
N618        O622   1.263       .  A
O620        N855   1.263       .  A
O621        N858   1.263       .  A
C623        C624   1.405   1_554  A
C623        C628   1.407       .  A
C623        H630   1.084       .  S
C624        C865   1.413       .  A
C624       C1553   1.480   1_455  S
C625        C864   1.413       .  A
C625        C626   1.403       .  A
C625       N1592   1.442       .  S
C626        C867   1.404       .  A
C626        H631   1.084       .  S
C627        C866   1.404       .  A
C627        C628   1.416   1_556  A
C628        N629   1.442       .  S
N629        O633   1.263       .  A
N629        O634   1.262       .  A
N632       C1585   1.442       .  S
N632       O1595   1.263       .  A
N632        O636   1.263       .  A
O635       N1592   1.263   1_655  A
C637        C638   1.411       .  A
C637        C642   1.405       .  A
C637        H644   1.083       .  S
C638        C879   1.420       .  A
C639        C878   1.420       .  A
C639        C640   1.405       .  A
C639        N646   1.429   1_554  S
C640        C881   1.401       .  A
C640        H645   1.084   1_554  S
C641        C880   1.401       .  A
C641        C642   1.413       .  A
C642        N643   1.441       .  S
N643        O647   1.263       .  A
N643        O888   1.263       .  A
N646        O889   1.262       .  A
N646        O650   1.262   1_556  A
O648        N883   1.263       .  A
O649        N886   1.262       .  A
C651        C892   1.404   1_554  A
C651        C656   1.404       .  A
C651        H658   1.084       .  S
C652        C891   1.404       .  A
C652        C653   1.415       .  A
C652       C1535   1.483   1_455  S
C653        C654   1.405       .  A
C653       N1620   1.442   1_455  S
C654        C655   1.406       .  A
C654        H659   1.084       .  S
C655        C896   1.412       .  A
C655        C824   1.492       .  S
C656        C895   1.412   1_554  A
C656        N657   1.429       .  S
N657        O661   1.262       .  A
N657        O902   1.262       .  A
N660       C1613   1.442       .  S
N660        O903   1.263       .  A
N660        O664   1.263       .  A
O662        N897   1.262       .  A
O663        N900   1.263       .  A
C665        C666   1.401       .  A
C665        C670   1.404       .  A
C665        H672   1.084       .  S
C666        C667   1.415       .  A
C667        C668   1.402       .  A
C667        N674   1.442       .  S
C668        C669   1.402       .  A
C668        H673   1.084       .  S
C669        C670   1.415       .  A
C670        N671   1.439       .  S
N671        O675   1.263       .  A
N671        O676   1.261       .  A
N674        O677   1.263       .  A
N674        O678   1.263       .  A
C679        C680   1.404       .  A
C679        C684   1.405       .  A
C679        H686   1.084       .  S
C680        C681   1.413       .  A
C681        C682   1.399       .  A
C681        N688   1.441       .  S
C682        C683   1.403       .  A
C682        H687   1.084       .  S
C683        C684   1.415       .  A
C684        N685   1.440       .  S
N685        O689   1.263       .  A
N685        O690   1.262       .  A
N688        O691   1.263       .  A
N688        O692   1.263       .  A
C693        C694   1.402       .  A
C693        C698   1.403       .  A
C693        H700   1.084       .  S
C694        C695   1.413       .  A
C695        C696   1.400       .  A
C695        N702   1.443       .  S
C696        C697   1.403       .  A
C696        H701   1.084       .  S
C697        C698   1.415       .  A
C698        N699   1.440       .  S
N699        O703   1.263       .  A
N699        O704   1.262       .  A
N702        O705   1.263       .  A
N702        O706   1.263       .  A
C707        C708   1.403       .  A
C707        C712   1.405       .  A
C707        H714   1.084       .  S
C708        C709   1.413       .  A
C709        C710   1.399       .  A
C709        N716   1.442       .  S
C710        C711   1.403       .  A
C710        H715   1.084       .  S
C711        C712   1.415       .  A
C712        N713   1.439       .  S
N713        O717   1.263       .  A
N713        O718   1.262       .  A
N716        O719   1.263       .  A
N716        O720   1.263       .  A
C721        C722   1.407       .  A
C721        C726   1.407       .  A
C721        C781   1.471       .  S
C722        C723   1.399       .  A
C722        H727   1.084       .  S
C723        C724   1.399       .  A
C723        C948   1.477       .  S
C724        C725   1.398       .  A
C724        H728   1.085       .  S
C725        C726   1.398       .  A
C725        C934   1.473       .  S
C726        H729   1.084       .  S
C730        C731   1.408       .  A
C730        C735   1.410       .  A
C730        C810   1.474       .  S
C731        C732   1.399       .  A
C731        H736   1.083       .  S
C732        C733   1.396       .  A
C732        C937   1.474       .  S
C733        C734   1.397       .  A
C733        H737   1.085       .  S
C734        C735   1.401       .  A
C734        C923   1.477       .  S
C735        H738   1.084       .  S
C739        C740   1.409       .  A
C739        C744   1.410       .  A
C739        C809   1.476       .  S
C740        C741   1.401       .  A
C740        H745   1.084       .  S
C741        C742   1.398       .  A
C741        C951   1.477       .  S
C742        C743   1.397       .  A
C742        H746   1.085       .  S
C743        C744   1.401       .  A
C743        C906   1.477       .  S
C744        H747   1.083       .  S
C748        C749   1.406       .  A
C748        C753   1.407       .  A
C748        C782   1.473       .  S
C749        C750   1.399       .  A
C749        H754   1.084       .  S
C750        C751   1.401       .  A
C750        C920   1.479       .  S
C751        C752   1.400       .  A
C751        H755   1.085       .  S
C752        C753   1.400       .  A
C752        C909   1.477       .  S
C753        H756   1.083       .  S
O758        V765   1.904       .  S
O758        C768   1.266       .  A
O759        V765   1.902   1_556  S
O759        C769   1.264       .  A
O760        C770   1.263       .  A
O761        C770   1.262       .  A
O762        V766   1.896   1_556  S
O762        C769   1.262       .  A
O764        V766   1.898       .  S
O764        C767   1.265       .  A
V765        V766   2.089       .  T
C768        C813   1.480       .  S
C769        C783   1.457       .  S
C770        C784   1.457       .  S
O771        V779   1.891       .  S
O771        C781   1.263       .  A
O772       V1739   1.894   1_455  S
O772        C782   1.264       .  A
O773        V779   1.900       .  S
O773        C783   1.263       .  A
O774        V779   1.900       .  S
O774        C784   1.263       .  A
O775        V780   1.898       .  S
O775        C784   1.262       .  A
O776        V780   1.898       .  S
O776        C783   1.262       .  A
O777       V1740   1.895   1_455  S
O777        C782   1.264       .  A
O778        V780   1.895       .  S
O778        C781   1.264       .  A
V779       O1732   1.894       .  S
V779        V780   2.089       .  T
V780       O1737   1.895       .  S
O786        V793   1.908       .  S
O787        V793   1.898       .  S
O789        C798   1.263       .  A
O790        V794   1.901       .  S
O790        C797   1.263       .  A
O792        V794   1.899       .  S
O792        C795   1.264   1_565  A
C796        C840   1.485   1_556  S
O799        V807   1.896       .  S
O799        C809   1.264       .  A
O800        C810   1.263       .  A
O801        V807   1.899       .  S
O801        C811   1.263       .  A
O803        V808   1.897       .  S
O803        C812   1.263       .  A
O805        C810   1.265       .  A
O806        V808   1.898       .  S
O806        C809   1.265       .  A
V807        V808   2.089       .  T
C813        C814   1.409   1_554  A
C813        C818   1.409       .  A
C814        C815   1.402       .  A
C814       H1779   1.084       .  S
C815        C816   1.403   1_556  A
C815       C1852   1.483       .  S
C816        C817   1.404       .  A
C816        H820   1.084       .  S
C817        C818   1.403       .  A
C817        C881   1.485       .  S
C818        H821   1.084       .  S
H819       C1774   1.084   1_455  S
C822        C823   1.414   1_545  A
C823        C824   1.407       .  A
C823        H828   1.082       .  S
C824        C825   1.401   1_565  A
C825        H829   1.085       .  S
C826        C827   1.402       .  A
C826        C867   1.479       .  S
C827        H830   1.083       .  S
C831        C832   1.409       .  A
C832        C833   1.396       .  A
C832       H1797   1.083       .  S
C833       C1824   1.480       .  S
C834        C835   1.406       .  A
C834        H838   1.083       .  S
C835        C836   1.410   1_556  A
C835        C850   1.502   1_556  S
C836        H839   1.082       .  S
H837       C1792   1.083   1_455  S
C840        C841   1.410       .  A
C841        C842   1.402       .  A
C841        H846   1.078       .  S
C842        C843   1.404       .  A
C842        C878   1.510       .  S
C843        H847   1.073       .  S
C844        C845   1.414       .  A
C844        C853   1.523       .  S
C845        H848   1.079   1_554  S
C849        C854   1.418       .  A
C849        H856   1.082       .  S
C850        C851   1.412       .  A
C851        C852   1.390       .  A
C851        N858   1.442       .  S
C852        C853   1.413       .  A
C852        H857   1.077       .  S
C854        N855   1.435       .  S
N855        O859   1.263       .  A
N858        O862   1.263       .  A
C863        C864   1.405       .  A
C863        C868   1.407       .  A
C863        H870   1.084       .  S
C864       C1793   1.480   1_455  S
C865        C866   1.403       .  A
C865       N1832   1.442       .  S
C866        H871   1.084       .  S
C867        C868   1.416       .  A
C868        N869   1.442       .  S
N869        O873   1.263       .  A
N869        O874   1.262       .  A
N872       C1825   1.442       .  S
N872       O1835   1.263       .  A
N872        O876   1.263       .  A
O875       N1832   1.263   1_655  A
C877        C878   1.411       .  A
C877        C882   1.405       .  A
C877        H884   1.083       .  S
C879        C880   1.405       .  A
C879        N886   1.429       .  S
C880        H885   1.084       .  S
C881        C882   1.413       .  A
C882        N883   1.441       .  S
N883        O887   1.263       .  A
N886        O890   1.262       .  A
C891        C896   1.404       .  A
C891        H898   1.084       .  S
C892        C893   1.415       .  A
C892       C1775   1.483   1_455  S
C893        C894   1.405       .  A
C893       N1860   1.442   1_455  S
C894        C895   1.406       .  A
C894        H899   1.084       .  S
C896        N897   1.429       .  S
N897        O901   1.262       .  A
N900       C1853   1.442       .  S
N900        O904   1.263       .  A
C905        C906   1.401       .  A
C905        C910   1.404       .  A
C905        H912   1.084       .  S
C906        C907   1.415       .  A
C907        C908   1.402       .  A
C907        N914   1.442       .  S
C908        C909   1.402       .  A
C908        H913   1.084       .  S
C909        C910   1.415       .  A
C910        N911   1.439       .  S
N911        O915   1.263       .  A
N911        O916   1.261       .  A
N914        O917   1.263       .  A
N914        O918   1.263       .  A
C919        C920   1.404       .  A
C919        C924   1.405       .  A
C919        H926   1.084       .  S
C920        C921   1.413       .  A
C921        C922   1.399       .  A
C921        N928   1.441       .  S
C922        C923   1.403       .  A
C922        H927   1.084       .  S
C923        C924   1.415       .  A
C924        N925   1.440       .  S
N925        O929   1.263       .  A
N925        O930   1.262       .  A
N928        O931   1.263       .  A
N928        O932   1.263       .  A
C933        C934   1.402       .  A
C933        C938   1.403       .  A
C933        H940   1.084       .  S
C934        C935   1.413       .  A
C935        C936   1.400       .  A
C935        N942   1.443       .  S
C936        C937   1.403       .  A
C936        H941   1.084       .  S
C937        C938   1.415       .  A
C938        N939   1.440       .  S
N939        O943   1.263       .  A
N939        O944   1.262       .  A
N942        O945   1.263       .  A
N942        O946   1.263       .  A
C947        C948   1.403       .  A
C947        C952   1.405       .  A
C947        H954   1.084       .  S
C948        C949   1.413       .  A
C949        C950   1.399       .  A
C949        N956   1.442       .  S
C950        C951   1.403       .  A
C950        H955   1.084       .  S
C951        C952   1.415       .  A
C952        N953   1.439       .  S
N953        O957   1.263       .  A
N953        O958   1.262       .  A
N956        O959   1.263       .  A
N956        O960   1.263       .  A
C961        C962   1.407       .  A
C961        C966   1.407       .  A
C961       C1021   1.471       .  S
C962        C963   1.399       .  A
C962        H967   1.084       .  S
C963        C964   1.399       .  A
C963       C1188   1.477       .  S
C964        C965   1.398       .  A
C964        H968   1.085       .  S
C965        C966   1.398       .  A
C965       C1174   1.473       .  S
C966        H969   1.084       .  S
C970        C971   1.408       .  A
C970        C975   1.410       .  A
C970       C1050   1.474       .  S
C971        C972   1.399       .  A
C971        H976   1.083       .  S
C972        C973   1.396       .  A
C972       C1177   1.474       .  S
C973        C974   1.397       .  A
C973        H977   1.085       .  S
C974        C975   1.401       .  A
C974       C1163   1.477       .  S
C975        H978   1.084       .  S
C979        C980   1.409       .  A
C979        C984   1.410       .  A
C979       C1049   1.476       .  S
C980        C981   1.401       .  A
C980        H985   1.084       .  S
C981        C982   1.398       .  A
C981       C1191   1.477       .  S
C982        C983   1.397       .  A
C982        H986   1.085       .  S
C983        C984   1.401       .  A
C983       C1146   1.477       .  S
C984        H987   1.083       .  S
C988        C989   1.406       .  A
C988        C993   1.407       .  A
C988       C1022   1.473       .  S
C989        C990   1.399       .  A
C989        H994   1.084       .  S
C990        C991   1.401       .  A
C990       C1160   1.479       .  S
C991        C992   1.400       .  A
C991        H995   1.085       .  S
C992        C993   1.400       .  A
C992       C1149   1.477       .  S
C993        H996   1.083       .  S
O997       V1245   1.903       .  S
O997       C1247   1.265       .  A
O998       V1005   1.904       .  S
O998       C1008   1.266       .  A
O999       V1005   1.902       .  S
O999       C1009   1.264       .  A
O1000      V1245   1.899       .  S
O1000      C1010   1.263       .  A
O1001      V1246   1.898       .  S
O1001      C1010   1.262       .  A
O1002      V1006   1.896       .  S
O1002      C1009   1.262       .  A
O1003      V1246   1.899       .  S
O1003      C1248   1.265       .  A
O1004      V1006   1.898       .  S
O1004      C1007   1.265       .  A
V1005      O1237   1.903       .  S
V1005      O1240   1.899       .  S
V1005      V1006   2.089       .  T
V1006      O1241   1.898       .  S
V1006      O1243   1.899       .  S
C1007      C1311   1.480       .  S
C1007      O1237   1.265       .  A
C1008      C1053   1.480       .  S
C1008      O1243   1.265       .  A
C1009      C1023   1.457       .  S
C1010      C1024   1.457       .  S
O1011      V1019   1.891       .  S
O1011      C1021   1.263       .  A
O1012      C1022   1.264       .  A
O1013      V1019   1.900       .  S
O1013      C1023   1.263       .  A
O1014      V1019   1.900       .  S
O1014      C1024   1.263       .  A
O1015      V1020   1.898       .  S
O1015      C1024   1.262       .  A
O1016      V1020   1.898       .  S
O1016      C1023   1.262       .  A
O1017      C1022   1.264       .  A
O1018      V1020   1.895       .  S
O1018      C1021   1.264       .  A
V1019      V1020   2.089       .  T
O1025      V1273   1.907       .  S
O1025      C1755   1.267       .  A
O1026      V1033   1.908       .  S
O1026      C1516   1.267   1_545  A
O1027      V1033   1.898       .  S
O1027      C1517   1.262   1_545  A
O1028      V1273   1.898   1_554  S
O1028      C1518   1.262   1_545  A
O1029      V1274   1.900   1_554  S
O1029      C1038   1.263       .  A
O1030      V1034   1.901       .  S
O1030      C1037   1.263       .  A
O1031      V1274   1.900       .  S
O1031      C1276   1.265       .  A
O1032      V1034   1.899       .  S
O1032      C1035   1.264       .  A
V1033      O1265   1.907       .  S
V1033      O1268   1.898       .  S
V1033      V1514   2.088   1_545  T
V1034      O1269   1.900       .  S
V1034      O1271   1.900       .  S
V1034      V1513   2.088       .  T
C1035      C1302   1.484       .  S
C1035      O1745   1.267       .  A
C1036      C1080   1.485       .  S
C1036      O1506   1.267       .  A
C1036      O1271   1.265       .  A
C1037      C1531   1.457       .  S
C1037      O1507   1.262       .  A
C1038      C1532   1.458       .  S
C1038      O1508   1.262       .  A
O1039      V1047   1.896   1_545  S
O1039      C1049   1.264       .  A
O1040      V1527   1.894       .  S
O1040      C1050   1.263       .  A
O1041      V1047   1.899       .  S
O1041      C1051   1.263       .  A
O1042      V1527   1.902       .  S
O1042      C1532   1.263       .  A
O1043      V1048   1.897       .  S
O1043      C1052   1.263   1_545  A
O1044      V1528   1.899       .  S
O1044      C1531   1.262       .  A
O1045      V1528   1.897       .  S
O1045      C1050   1.265       .  A
O1046      V1048   1.898       .  S
O1046      C1049   1.265       .  A
V1047      O1520   1.894       .  S
V1047      O1522   1.902       .  S
V1047      V1048   2.089   1_565  T
V1048      O1524   1.899       .  S
V1048      O1525   1.897   1_545  S
C1051      C1517   1.457       .  S
C1051      O1524   1.262   1_565  A
C1052      C1518   1.458       .  S
C1052      O1522   1.263       .  A
C1053      C1054   1.409       .  A
C1053      C1058   1.409       .  A
C1054      C1055   1.402       .  A
C1055      C1056   1.403       .  A
C1056      C1057   1.404       .  A
C1056      H1060   1.084       .  S
C1057      C1058   1.403       .  A
C1057      C1121   1.485       .  S
C1058      H1061   1.084       .  S
C1062      C1063   1.414       .  A
C1062      C1547   1.410       .  A
C1062      C1275   1.484       .  S
C1063      C1064   1.407       .  A
C1063      H1068   1.082       .  S
C1064      C1065   1.401       .  A
C1064      C1375   1.492       .  S
C1065      C1546   1.398       .  A
C1065      H1069   1.085       .  S
C1066      C1545   1.398       .  A
C1066      C1067   1.402       .  A
C1066      C1107   1.479       .  S
C1067      C1542   1.410       .  A
C1067      H1070   1.083       .  S
C1071      C1072   1.409       .  A
C1071      C1316   1.415   1_556  A
C1071      C1247   1.480   1_556  S
C1072      C1073   1.396       .  A
C1073      C1314   1.395       .  A
C1074      C1313   1.395       .  A
C1074      C1075   1.406       .  A
C1074      H1078   1.083       .  S
C1075      C1076   1.410       .  A
C1075      C1090   1.502       .  S
C1076      C1311   1.415       .  A
C1076      H1079   1.082       .  S
C1080      C1081   1.410       .  A
C1080      C1565   1.413       .  A
C1081      C1082   1.402       .  A
C1081      H1086   1.078       .  S
C1082      C1083   1.404       .  A
C1082      C1118   1.510       .  S
C1083      C1564   1.412       .  A
C1083      H1087   1.073       .  S
C1084      C1563   1.412   1_545  A
C1084      C1085   1.414       .  A
C1084      C1093   1.523       .  S
C1085      C1560   1.413   1_545  A
C1085      H1088   1.079       .  S
C1089      C1330   1.409       .  A
C1089      C1094   1.418       .  A
C1089      H1096   1.082   1_554  S
C1090      C1329   1.409       .  A
C1090      C1091   1.412       .  A
C1091      C1092   1.390       .  A
C1091      N1098   1.442       .  S
C1092      C1093   1.413       .  A
C1092      H1097   1.077       .  S
C1093      C1334   1.428       .  A
C1094      C1333   1.428       .  A
C1094      N1095   1.435       .  S
N1095      O1099   1.263       .  A
N1095      O1340   1.263   1_554  A
N1098      O1341   1.263       .  A
N1098      O1102   1.263       .  A
O1100      N1335   1.263       .  A
O1101      N1338   1.263       .  A
C1103      C1104   1.405   1_554  A
C1103      C1108   1.407       .  A
C1103      H1110   1.084       .  S
C1104      C1345   1.413       .  A
C1105      C1344   1.413       .  A
C1105      C1106   1.403       .  A
C1106      C1347   1.404       .  A
C1106      H1111   1.084       .  S
C1107      C1346   1.404       .  A
C1107      C1108   1.416   1_556  A
C1108      N1109   1.442       .  S
N1109      O1113   1.263       .  A
N1109      O1114   1.262       .  A
N1112      O1116   1.263       .  A
C1117      C1118   1.411       .  A
C1117      C1122   1.405       .  A
C1117      H1124   1.083       .  S
C1118      C1359   1.420       .  A
C1119      C1358   1.420       .  A
C1119      C1120   1.405       .  A
C1119      N1126   1.429   1_554  S
C1120      C1361   1.401       .  A
C1120      H1125   1.084   1_554  S
C1121      C1360   1.401       .  A
C1121      C1122   1.413       .  A
C1122      N1123   1.441       .  S
N1123      O1127   1.263       .  A
N1123      O1368   1.263       .  A
N1126      O1369   1.262       .  A
N1126      O1130   1.262   1_556  A
O1128      N1363   1.263       .  A
O1129      N1366   1.262       .  A
C1131      C1372   1.404   1_554  A
C1131      C1136   1.404       .  A
C1131      H1138   1.084       .  S
C1132      C1371   1.404       .  A
C1132      C1133   1.415       .  A
C1133      C1134   1.405       .  A
C1134      C1135   1.406       .  A
C1134      H1139   1.084       .  S
C1135      C1376   1.412       .  A
C1135      C1304   1.492       .  S
C1136      C1375   1.412   1_554  A
C1136      N1137   1.429       .  S
N1137      O1141   1.262       .  A
N1137      O1382   1.262       .  A
N1140      O1383   1.263       .  A
N1140      O1144   1.263       .  A
O1142      N1377   1.262       .  A
O1143      N1380   1.263       .  A
C1145      C1146   1.401       .  A
C1145      C1150   1.404       .  A
C1145      H1152   1.084       .  S
C1146      C1147   1.415       .  A
C1147      C1148   1.402       .  A
C1147      N1154   1.442       .  S
C1148      C1149   1.402       .  A
C1148      H1153   1.084       .  S
C1149      C1150   1.415       .  A
C1150      N1151   1.439       .  S
N1151      O1155   1.263       .  A
N1151      O1156   1.261       .  A
N1154      O1157   1.263       .  A
N1154      O1158   1.263       .  A
C1159      C1160   1.404       .  A
C1159      C1164   1.405       .  A
C1159      H1166   1.084       .  S
C1160      C1161   1.413       .  A
C1161      C1162   1.399       .  A
C1161      N1168   1.441       .  S
C1162      C1163   1.403       .  A
C1162      H1167   1.084       .  S
C1163      C1164   1.415       .  A
C1164      N1165   1.440       .  S
N1165      O1169   1.263       .  A
N1165      O1170   1.262       .  A
N1168      O1171   1.263       .  A
N1168      O1172   1.263       .  A
C1173      C1174   1.402       .  A
C1173      C1178   1.403       .  A
C1173      H1180   1.084       .  S
C1174      C1175   1.413       .  A
C1175      C1176   1.400       .  A
C1175      N1182   1.443       .  S
C1176      C1177   1.403       .  A
C1176      H1181   1.084       .  S
C1177      C1178   1.415       .  A
C1178      N1179   1.440       .  S
N1179      O1183   1.263       .  A
N1179      O1184   1.262       .  A
N1182      O1185   1.263       .  A
N1182      O1186   1.263       .  A
C1187      C1188   1.403       .  A
C1187      C1192   1.405       .  A
C1187      H1194   1.084       .  S
C1188      C1189   1.413       .  A
C1189      C1190   1.399       .  A
C1189      N1196   1.442       .  S
C1190      C1191   1.403       .  A
C1190      H1195   1.084       .  S
C1191      C1192   1.415       .  A
C1192      N1193   1.439       .  S
N1193      O1197   1.263       .  A
N1193      O1198   1.262       .  A
N1196      O1199   1.263       .  A
N1196      O1200   1.263       .  A
C1201      C1202   1.407       .  A
C1201      C1206   1.407       .  A
C1201      C1261   1.471       .  S
C1202      C1203   1.399       .  A
C1202      H1207   1.084       .  S
C1203      C1204   1.399       .  A
C1203      C1428   1.477       .  S
C1204      C1205   1.398       .  A
C1204      H1208   1.085       .  S
C1205      C1206   1.398       .  A
C1205      C1414   1.473       .  S
C1206      H1209   1.084       .  S
C1210      C1211   1.408       .  A
C1210      C1215   1.410       .  A
C1210      C1290   1.474       .  S
C1211      C1212   1.399       .  A
C1211      H1216   1.083       .  S
C1212      C1213   1.396       .  A
C1212      C1417   1.474       .  S
C1213      C1214   1.397       .  A
C1213      H1217   1.085       .  S
C1214      C1215   1.401       .  A
C1214      C1403   1.477       .  S
C1215      H1218   1.084       .  S
C1219      C1220   1.409       .  A
C1219      C1224   1.410       .  A
C1219      C1289   1.476       .  S
C1220      C1221   1.401       .  A
C1220      H1225   1.084       .  S
C1221      C1222   1.398       .  A
C1221      C1431   1.477       .  S
C1222      C1223   1.397       .  A
C1222      H1226   1.085       .  S
C1223      C1224   1.401       .  A
C1223      C1386   1.477       .  S
C1224      H1227   1.083       .  S
C1228      C1229   1.406       .  A
C1228      C1233   1.407       .  A
C1228      C1262   1.473       .  S
C1229      C1230   1.399       .  A
C1229      H1234   1.084       .  S
C1230      C1231   1.401       .  A
C1230      C1400   1.479       .  S
C1231      C1232   1.400       .  A
C1231      H1235   1.085       .  S
C1232      C1233   1.400       .  A
C1232      C1389   1.477       .  S
C1233      H1236   1.083       .  S
O1238      V1245   1.904       .  S
O1238      C1248   1.266       .  A
O1239      V1245   1.902   1_556  S
O1239      C1249   1.264       .  A
O1240      C1250   1.263       .  A
O1241      C1250   1.262       .  A
O1242      V1246   1.896   1_556  S
O1242      C1249   1.262       .  A
O1244      V1246   1.898       .  S
O1244      C1247   1.265       .  A
V1245      V1246   2.089       .  T
C1248      C1293   1.480       .  S
C1249      C1263   1.457       .  S
C1250      C1264   1.457       .  S
O1251      V1259   1.891       .  S
O1251      C1261   1.263       .  A
O1252      C1262   1.264       .  A
O1253      V1259   1.900       .  S
O1253      C1263   1.263       .  A
O1254      V1259   1.900       .  S
O1254      C1264   1.263       .  A
O1255      V1260   1.898       .  S
O1255      C1264   1.262       .  A
O1256      V1260   1.898       .  S
O1256      C1263   1.262       .  A
O1257      C1262   1.264       .  A
O1258      V1260   1.895       .  S
O1258      C1261   1.264       .  A
V1259      V1260   2.089       .  T
O1265      C1515   1.267       .  A
O1266      V1273   1.908       .  S
O1266      C1756   1.267   1_545  A
O1267      V1273   1.898       .  S
O1267      C1757   1.262   1_545  A
O1268      C1758   1.262   1_545  A
O1269      C1278   1.263       .  A
O1270      V1274   1.901       .  S
O1270      C1277   1.263       .  A
O1272      V1274   1.899       .  S
O1272      C1275   1.264       .  A
V1273      V1754   2.088   1_545  T
V1274      V1753   2.088       .  T
C1275      O1505   1.267       .  A
C1276      C1320   1.485   1_556  S
C1276      O1746   1.267       .  A
C1277      C1771   1.457       .  S
C1277      O1747   1.262       .  A
C1278      C1772   1.458       .  S
C1278      O1748   1.262       .  A
O1279      V1287   1.896   1_545  S
O1279      C1289   1.264       .  A
O1280      V1767   1.894       .  S
O1280      C1290   1.263       .  A
O1281      V1287   1.899       .  S
O1281      C1291   1.263       .  A
O1282      V1767   1.902       .  S
O1282      C1772   1.263       .  A
O1283      V1288   1.897       .  S
O1283      C1292   1.263   1_545  A
O1284      V1768   1.899       .  S
O1284      C1771   1.262       .  A
O1285      V1768   1.897       .  S
O1285      C1290   1.265       .  A
O1286      V1288   1.898       .  S
O1286      C1289   1.265       .  A
V1287      O1760   1.894       .  S
V1287      O1762   1.902       .  S
V1287      V1288   2.089   1_565  T
V1288      O1764   1.899       .  S
V1288      O1765   1.897   1_545  S
C1291      C1757   1.457       .  S
C1291      O1764   1.262   1_565  A
C1292      C1758   1.458       .  S
C1292      O1762   1.263       .  A
C1293      C1294   1.409   1_554  A
C1293      C1298   1.409       .  A
C1294      C1295   1.402       .  A
C1295      C1296   1.403   1_556  A
C1296      C1297   1.404       .  A
C1296      H1300   1.084       .  S
C1297      C1298   1.403       .  A
C1297      C1361   1.485       .  S
C1298      H1301   1.084       .  S
C1302      C1303   1.414       .  A
C1302      C1787   1.410       .  A
C1303      C1304   1.407       .  A
C1303      H1308   1.082       .  S
C1304      C1305   1.401       .  A
C1305      C1786   1.398       .  A
C1305      H1309   1.085       .  S
C1306      C1785   1.398       .  A
C1306      C1307   1.402       .  A
C1306      C1347   1.479       .  S
C1307      C1782   1.410       .  A
C1307      H1310   1.083       .  S
C1311      C1312   1.409       .  A
C1312      C1313   1.396       .  A
C1314      C1315   1.406       .  A
C1314      H1318   1.083       .  S
C1315      C1316   1.410   1_556  A
C1315      C1330   1.502   1_556  S
C1316      H1319   1.082       .  S
C1320      C1321   1.410       .  A
C1320      C1805   1.413       .  A
C1321      C1322   1.402       .  A
C1321      H1326   1.078       .  S
C1322      C1323   1.404       .  A
C1322      C1358   1.510       .  S
C1323      C1804   1.412       .  A
C1323      H1327   1.073       .  S
C1324      C1803   1.412   1_545  A
C1324      C1325   1.414       .  A
C1324      C1333   1.523       .  S
C1325      C1800   1.413   1_545  A
C1325      H1328   1.079   1_554  S
C1329      C1334   1.418       .  A
C1329      H1336   1.082       .  S
C1330      C1331   1.412       .  A
C1331      C1332   1.390       .  A
C1331      N1338   1.442       .  S
C1332      C1333   1.413       .  A
C1332      H1337   1.077       .  S
C1334      N1335   1.435       .  S
N1335      O1339   1.263       .  A
N1338      O1342   1.263       .  A
C1343      C1344   1.405       .  A
C1343      C1348   1.407       .  A
C1343      H1350   1.084       .  S
C1345      C1346   1.403       .  A
C1346      H1351   1.084       .  S
C1347      C1348   1.416       .  A
C1348      N1349   1.442       .  S
N1349      O1353   1.263       .  A
N1349      O1354   1.262       .  A
N1352      O1356   1.263       .  A
C1357      C1358   1.411       .  A
C1357      C1362   1.405       .  A
C1357      H1364   1.083       .  S
C1359      C1360   1.405       .  A
C1359      N1366   1.429       .  S
C1360      H1365   1.084       .  S
C1361      C1362   1.413       .  A
C1362      N1363   1.441       .  S
N1363      O1367   1.263       .  A
N1366      O1370   1.262       .  A
C1371      C1376   1.404       .  A
C1371      H1378   1.084       .  S
C1372      C1373   1.415       .  A
C1373      C1374   1.405       .  A
C1374      C1375   1.406       .  A
C1374      H1379   1.084       .  S
C1376      N1377   1.429       .  S
N1377      O1381   1.262       .  A
N1380      O1384   1.263       .  A
C1385      C1386   1.401       .  A
C1385      C1390   1.404       .  A
C1385      H1392   1.084       .  S
C1386      C1387   1.415       .  A
C1387      C1388   1.402       .  A
C1387      N1394   1.442       .  S
C1388      C1389   1.402       .  A
C1388      H1393   1.084       .  S
C1389      C1390   1.415       .  A
C1390      N1391   1.439       .  S
N1391      O1395   1.263       .  A
N1391      O1396   1.261       .  A
N1394      O1397   1.263       .  A
N1394      O1398   1.263       .  A
C1399      C1400   1.404       .  A
C1399      C1404   1.405       .  A
C1399      H1406   1.084       .  S
C1400      C1401   1.413       .  A
C1401      C1402   1.399       .  A
C1401      N1408   1.441       .  S
C1402      C1403   1.403       .  A
C1402      H1407   1.084       .  S
C1403      C1404   1.415       .  A
C1404      N1405   1.440       .  S
N1405      O1409   1.263       .  A
N1405      O1410   1.262       .  A
N1408      O1411   1.263       .  A
N1408      O1412   1.263       .  A
C1413      C1414   1.402       .  A
C1413      C1418   1.403       .  A
C1413      H1420   1.084       .  S
C1414      C1415   1.413       .  A
C1415      C1416   1.400       .  A
C1415      N1422   1.443       .  S
C1416      C1417   1.403       .  A
C1416      H1421   1.084       .  S
C1417      C1418   1.415       .  A
C1418      N1419   1.440       .  S
N1419      O1423   1.263       .  A
N1419      O1424   1.262       .  A
N1422      O1425   1.263       .  A
N1422      O1426   1.263       .  A
C1427      C1428   1.403       .  A
C1427      C1432   1.405       .  A
C1427      H1434   1.084       .  S
C1428      C1429   1.413       .  A
C1429      C1430   1.399       .  A
C1429      N1436   1.442       .  S
C1430      C1431   1.403       .  A
C1430      H1435   1.084       .  S
C1431      C1432   1.415       .  A
C1432      N1433   1.439       .  S
N1433      O1437   1.263       .  A
N1433      O1438   1.262       .  A
N1436      O1439   1.263       .  A
N1436      O1440   1.263       .  A
C1441      C1442   1.407       .  A
C1441      C1446   1.407       .  A
C1441      C1501   1.471       .  S
C1442      C1443   1.399       .  A
C1442      H1447   1.084       .  S
C1443      C1444   1.399       .  A
C1443      C1668   1.477       .  S
C1444      C1445   1.398       .  A
C1444      H1448   1.085       .  S
C1445      C1446   1.398       .  A
C1445      C1654   1.473       .  S
C1446      H1449   1.084       .  S
C1450      C1451   1.408       .  A
C1450      C1455   1.410       .  A
C1450      C1530   1.474       .  S
C1451      C1452   1.399       .  A
C1451      H1456   1.083       .  S
C1452      C1453   1.396       .  A
C1452      C1657   1.474       .  S
C1453      C1454   1.397       .  A
C1453      H1457   1.085       .  S
C1454      C1455   1.401       .  A
C1454      C1643   1.477       .  S
C1455      H1458   1.084       .  S
C1459      C1460   1.409       .  A
C1459      C1464   1.410       .  A
C1459      C1529   1.476       .  S
C1460      C1461   1.401       .  A
C1460      H1465   1.084       .  S
C1461      C1462   1.398       .  A
C1461      C1671   1.477       .  S
C1462      C1463   1.397       .  A
C1462      H1466   1.085       .  S
C1463      C1464   1.401       .  A
C1463      C1626   1.477       .  S
C1464      H1467   1.083       .  S
C1468      C1469   1.406       .  A
C1468      C1473   1.407       .  A
C1468      C1502   1.473       .  S
C1469      C1470   1.399       .  A
C1469      H1474   1.084       .  S
C1470      C1471   1.401       .  A
C1470      C1640   1.479       .  S
C1471      C1472   1.400       .  A
C1471      H1475   1.085       .  S
C1472      C1473   1.400       .  A
C1472      C1629   1.477       .  S
C1473      H1476   1.083       .  S
O1477      V1725   1.903       .  S
O1477      C1727   1.265       .  A
O1478      V1485   1.904       .  S
O1478      C1488   1.266       .  A
O1479      V1485   1.902       .  S
O1479      C1489   1.264       .  A
O1480      V1725   1.899       .  S
O1480      C1490   1.263       .  A
O1481      V1726   1.898       .  S
O1481      C1490   1.262       .  A
O1482      V1486   1.896       .  S
O1482      C1489   1.262       .  A
O1483      V1726   1.899       .  S
O1483      C1728   1.265       .  A
O1484      V1486   1.898       .  S
O1484      C1487   1.265       .  A
V1485      O1717   1.903       .  S
V1485      O1720   1.899       .  S
V1485      V1486   2.089       .  T
V1486      O1721   1.898       .  S
V1486      O1723   1.899       .  S
C1487      C1791   1.480       .  S
C1487      O1717   1.265       .  A
C1488      C1533   1.480       .  S
C1488      O1723   1.265       .  A
C1489      C1503   1.457       .  S
C1490      C1504   1.457       .  S
O1491      V1499   1.891       .  S
O1491      C1501   1.263       .  A
O1492      C1502   1.264       .  A
O1493      V1499   1.900       .  S
O1493      C1503   1.263       .  A
O1494      V1499   1.900       .  S
O1494      C1504   1.263       .  A
O1495      V1500   1.898       .  S
O1495      C1504   1.262       .  A
O1496      V1500   1.898       .  S
O1496      C1503   1.262       .  A
O1497      C1502   1.264       .  A
O1498      V1500   1.895       .  S
O1498      C1501   1.264       .  A
V1499      V1500   2.089       .  T
O1505      V1753   1.907       .  S
O1506      V1513   1.908       .  S
O1507      V1513   1.898       .  S
O1508      V1753   1.898   1_554  S
O1509      V1754   1.900   1_554  S
O1509      C1518   1.263       .  A
O1510      V1514   1.901       .  S
O1510      C1517   1.263       .  A
O1511      V1754   1.900       .  S
O1511      C1756   1.265       .  A
O1512      V1514   1.899       .  S
O1512      C1515   1.264   1_565  A
V1513      O1745   1.907       .  S
V1513      O1748   1.898       .  S
V1514      O1749   1.900       .  S
V1514      O1751   1.900       .  S
C1515      C1782   1.484       .  S
C1516      C1560   1.485       .  S
C1516      O1751   1.265       .  A
O1519      V1527   1.896       .  S
O1519      C1529   1.264       .  A
O1520      C1530   1.263       .  A
O1521      V1527   1.899       .  S
O1521      C1531   1.263       .  A
O1523      V1528   1.897       .  S
O1523      C1532   1.263       .  A
O1525      C1530   1.265       .  A
O1526      V1528   1.898       .  S
O1526      C1529   1.265       .  A
V1527      V1528   2.089       .  T
C1533      C1534   1.409       .  A
C1533      C1538   1.409       .  A
C1534      C1535   1.402       .  A
C1535      C1536   1.403       .  A
C1536      C1537   1.404       .  A
C1536      H1540   1.084       .  S
C1537      C1538   1.403       .  A
C1537      C1601   1.485       .  S
C1538      H1541   1.084       .  S
C1542      C1543   1.414   1_545  A
C1542      C1755   1.484       .  S
C1543      C1544   1.407       .  A
C1543      H1548   1.082       .  S
C1544      C1545   1.401   1_565  A
C1544      C1855   1.492       .  S
C1545      H1549   1.085       .  S
C1546      C1547   1.402       .  A
C1546      C1587   1.479       .  S
C1547      H1550   1.083       .  S
C1551      C1552   1.409       .  A
C1551      C1796   1.415   1_556  A
C1551      C1727   1.480   1_556  S
C1552      C1553   1.396       .  A
C1553      C1794   1.395       .  A
C1554      C1793   1.395       .  A
C1554      C1555   1.406       .  A
C1554      H1558   1.083       .  S
C1555      C1556   1.410       .  A
C1555      C1570   1.502       .  S
C1556      C1791   1.415       .  A
C1556      H1559   1.082       .  S
C1560      C1561   1.410       .  A
C1561      C1562   1.402       .  A
C1561      H1566   1.078       .  S
C1562      C1563   1.404       .  A
C1562      C1598   1.510       .  S
C1563      H1567   1.073       .  S
C1564      C1565   1.414       .  A
C1564      C1573   1.523       .  S
C1565      H1568   1.079       .  S
C1569      C1810   1.409       .  A
C1569      C1574   1.418       .  A
C1569      H1576   1.082   1_554  S
C1570      C1809   1.409       .  A
C1570      C1571   1.412       .  A
C1571      C1572   1.390       .  A
C1571      N1578   1.442       .  S
C1572      C1573   1.413       .  A
C1572      H1577   1.077       .  S
C1573      C1814   1.428       .  A
C1574      C1813   1.428       .  A
C1574      N1575   1.435       .  S
N1575      O1579   1.263       .  A
N1575      O1820   1.263   1_554  A
N1578      O1821   1.263       .  A
N1578      O1582   1.263       .  A
O1580      N1815   1.263       .  A
O1581      N1818   1.263       .  A
C1583      C1584   1.405   1_554  A
C1583      C1588   1.407       .  A
C1583      H1590   1.084       .  S
C1584      C1825   1.413       .  A
C1585      C1824   1.413       .  A
C1585      C1586   1.403       .  A
C1586      C1827   1.404       .  A
C1586      H1591   1.084       .  S
C1587      C1826   1.404       .  A
C1587      C1588   1.416   1_556  A
C1588      N1589   1.442       .  S
N1589      O1593   1.263       .  A
N1589      O1594   1.262       .  A
N1592      O1596   1.263       .  A
C1597      C1598   1.411       .  A
C1597      C1602   1.405       .  A
C1597      H1604   1.083       .  S
C1598      C1839   1.420       .  A
C1599      C1838   1.420       .  A
C1599      C1600   1.405       .  A
C1599      N1606   1.429   1_554  S
C1600      C1841   1.401       .  A
C1600      H1605   1.084   1_554  S
C1601      C1840   1.401       .  A
C1601      C1602   1.413       .  A
C1602      N1603   1.441       .  S
N1603      O1607   1.263       .  A
N1603      O1848   1.263       .  A
N1606      O1849   1.262       .  A
N1606      O1610   1.262   1_556  A
O1608      N1843   1.263       .  A
O1609      N1846   1.262       .  A
C1611      C1852   1.404   1_554  A
C1611      C1616   1.404       .  A
C1611      H1618   1.084       .  S
C1612      C1851   1.404       .  A
C1612      C1613   1.415       .  A
C1613      C1614   1.405       .  A
C1614      C1615   1.406       .  A
C1614      H1619   1.084       .  S
C1615      C1856   1.412       .  A
C1615      C1784   1.492       .  S
C1616      C1855   1.412   1_554  A
C1616      N1617   1.429       .  S
N1617      O1621   1.262       .  A
N1617      O1862   1.262       .  A
N1620      O1863   1.263       .  A
N1620      O1624   1.263       .  A
O1622      N1857   1.262       .  A
O1623      N1860   1.263       .  A
C1625      C1626   1.401       .  A
C1625      C1630   1.404       .  A
C1625      H1632   1.084       .  S
C1626      C1627   1.415       .  A
C1627      C1628   1.402       .  A
C1627      N1634   1.442       .  S
C1628      C1629   1.402       .  A
C1628      H1633   1.084       .  S
C1629      C1630   1.415       .  A
C1630      N1631   1.439       .  S
N1631      O1635   1.263       .  A
N1631      O1636   1.261       .  A
N1634      O1637   1.263       .  A
N1634      O1638   1.263       .  A
C1639      C1640   1.404       .  A
C1639      C1644   1.405       .  A
C1639      H1646   1.084       .  S
C1640      C1641   1.413       .  A
C1641      C1642   1.399       .  A
C1641      N1648   1.441       .  S
C1642      C1643   1.403       .  A
C1642      H1647   1.084       .  S
C1643      C1644   1.415       .  A
C1644      N1645   1.440       .  S
N1645      O1649   1.263       .  A
N1645      O1650   1.262       .  A
N1648      O1651   1.263       .  A
N1648      O1652   1.263       .  A
C1653      C1654   1.402       .  A
C1653      C1658   1.403       .  A
C1653      H1660   1.084       .  S
C1654      C1655   1.413       .  A
C1655      C1656   1.400       .  A
C1655      N1662   1.443       .  S
C1656      C1657   1.403       .  A
C1656      H1661   1.084       .  S
C1657      C1658   1.415       .  A
C1658      N1659   1.440       .  S
N1659      O1663   1.263       .  A
N1659      O1664   1.262       .  A
N1662      O1665   1.263       .  A
N1662      O1666   1.263       .  A
C1667      C1668   1.403       .  A
C1667      C1672   1.405       .  A
C1667      H1674   1.084       .  S
C1668      C1669   1.413       .  A
C1669      C1670   1.399       .  A
C1669      N1676   1.442       .  S
C1670      C1671   1.403       .  A
C1670      H1675   1.084       .  S
C1671      C1672   1.415       .  A
C1672      N1673   1.439       .  S
N1673      O1677   1.263       .  A
N1673      O1678   1.262       .  A
N1676      O1679   1.263       .  A
N1676      O1680   1.263       .  A
C1681      C1682   1.407       .  A
C1681      C1686   1.407       .  A
C1681      C1741   1.471       .  S
C1682      C1683   1.399       .  A
C1682      H1687   1.084       .  S
C1683      C1684   1.399       .  A
C1683      C1908   1.477       .  S
C1684      C1685   1.398       .  A
C1684      H1688   1.085       .  S
C1685      C1686   1.398       .  A
C1685      C1894   1.473       .  S
C1686      H1689   1.084       .  S
C1690      C1691   1.408       .  A
C1690      C1695   1.410       .  A
C1690      C1770   1.474       .  S
C1691      C1692   1.399       .  A
C1691      H1696   1.083       .  S
C1692      C1693   1.396       .  A
C1692      C1897   1.474       .  S
C1693      C1694   1.397       .  A
C1693      H1697   1.085       .  S
C1694      C1695   1.401       .  A
C1694      C1883   1.477       .  S
C1695      H1698   1.084       .  S
C1699      C1700   1.409       .  A
C1699      C1704   1.410       .  A
C1699      C1769   1.476       .  S
C1700      C1701   1.401       .  A
C1700      H1705   1.084       .  S
C1701      C1702   1.398       .  A
C1701      C1911   1.477       .  S
C1702      C1703   1.397       .  A
C1702      H1706   1.085       .  S
C1703      C1704   1.401       .  A
C1703      C1866   1.477       .  S
C1704      H1707   1.083       .  S
C1708      C1709   1.406       .  A
C1708      C1713   1.407       .  A
C1708      C1742   1.473       .  S
C1709      C1710   1.399       .  A
C1709      H1714   1.084       .  S
C1710      C1711   1.401       .  A
C1710      C1880   1.479       .  S
C1711      C1712   1.400       .  A
C1711      H1715   1.085       .  S
C1712      C1713   1.400       .  A
C1712      C1869   1.477       .  S
C1713      H1716   1.083       .  S
O1718      V1725   1.904       .  S
O1718      C1728   1.266       .  A
O1719      V1725   1.902   1_556  S
O1719      C1729   1.264       .  A
O1720      C1730   1.263       .  A
O1721      C1730   1.262       .  A
O1722      V1726   1.896   1_556  S
O1722      C1729   1.262       .  A
O1724      V1726   1.898       .  S
O1724      C1727   1.265       .  A
V1725      V1726   2.089       .  T
C1728      C1773   1.480       .  S
C1729      C1743   1.457       .  S
C1730      C1744   1.457       .  S
O1731      V1739   1.891       .  S
O1731      C1741   1.263       .  A
O1732      C1742   1.264       .  A
O1733      V1739   1.900       .  S
O1733      C1743   1.263       .  A
O1734      V1739   1.900       .  S
O1734      C1744   1.263       .  A
O1735      V1740   1.898       .  S
O1735      C1744   1.262       .  A
O1736      V1740   1.898       .  S
O1736      C1743   1.262       .  A
O1737      C1742   1.264       .  A
O1738      V1740   1.895       .  S
O1738      C1741   1.264       .  A
V1739      V1740   2.089       .  T
O1746      V1753   1.908       .  S
O1747      V1753   1.898       .  S
O1749      C1758   1.263       .  A
O1750      V1754   1.901       .  S
O1750      C1757   1.263       .  A
O1752      V1754   1.899       .  S
O1752      C1755   1.264   1_565  A
C1756      C1800   1.485   1_556  S
O1759      V1767   1.896       .  S
O1759      C1769   1.264       .  A
O1760      C1770   1.263       .  A
O1761      V1767   1.899       .  S
O1761      C1771   1.263       .  A
O1763      V1768   1.897       .  S
O1763      C1772   1.263       .  A
O1765      C1770   1.265       .  A
O1766      V1768   1.898       .  S
O1766      C1769   1.265       .  A
V1767      V1768   2.089       .  T
C1773      C1774   1.409   1_554  A
C1773      C1778   1.409       .  A
C1774      C1775   1.402       .  A
C1775      C1776   1.403   1_556  A
C1776      C1777   1.404       .  A
C1776      H1780   1.084       .  S
C1777      C1778   1.403       .  A
C1777      C1841   1.485       .  S
C1778      H1781   1.084       .  S
C1782      C1783   1.414   1_545  A
C1783      C1784   1.407       .  A
C1783      H1788   1.082       .  S
C1784      C1785   1.401   1_565  A
C1785      H1789   1.085       .  S
C1786      C1787   1.402       .  A
C1786      C1827   1.479       .  S
C1787      H1790   1.083       .  S
C1791      C1792   1.409       .  A
C1792      C1793   1.396       .  A
C1794      C1795   1.406       .  A
C1794      H1798   1.083       .  S
C1795      C1796   1.410   1_556  A
C1795      C1810   1.502   1_556  S
C1796      H1799   1.082       .  S
C1800      C1801   1.410       .  A
C1801      C1802   1.402       .  A
C1801      H1806   1.078       .  S
C1802      C1803   1.404       .  A
C1802      C1838   1.510       .  S
C1803      H1807   1.073       .  S
C1804      C1805   1.414       .  A
C1804      C1813   1.523       .  S
C1805      H1808   1.079   1_554  S
C1809      C1814   1.418       .  A
C1809      H1816   1.082       .  S
C1810      C1811   1.412       .  A
C1811      C1812   1.390       .  A
C1811      N1818   1.442       .  S
C1812      C1813   1.413       .  A
C1812      H1817   1.077       .  S
C1814      N1815   1.435       .  S
N1815      O1819   1.263       .  A
N1818      O1822   1.263       .  A
C1823      C1824   1.405       .  A
C1823      C1828   1.407       .  A
C1823      H1830   1.084       .  S
C1825      C1826   1.403       .  A
C1826      H1831   1.084       .  S
C1827      C1828   1.416       .  A
C1828      N1829   1.442       .  S
N1829      O1833   1.263       .  A
N1829      O1834   1.262       .  A
N1832      O1836   1.263       .  A
C1837      C1838   1.411       .  A
C1837      C1842   1.405       .  A
C1837      H1844   1.083       .  S
C1839      C1840   1.405       .  A
C1839      N1846   1.429       .  S
C1840      H1845   1.084       .  S
C1841      C1842   1.413       .  A
C1842      N1843   1.441       .  S
N1843      O1847   1.263       .  A
N1846      O1850   1.262       .  A
C1851      C1856   1.404       .  A
C1851      H1858   1.084       .  S
C1852      C1853   1.415       .  A
C1853      C1854   1.405       .  A
C1854      C1855   1.406       .  A
C1854      H1859   1.084       .  S
C1856      N1857   1.429       .  S
N1857      O1861   1.262       .  A
N1860      O1864   1.263       .  A
C1865      C1866   1.401       .  A
C1865      C1870   1.404       .  A
C1865      H1872   1.084       .  S
C1866      C1867   1.415       .  A
C1867      C1868   1.402       .  A
C1867      N1874   1.442       .  S
C1868      C1869   1.402       .  A
C1868      H1873   1.084       .  S
C1869      C1870   1.415       .  A
C1870      N1871   1.439       .  S
N1871      O1875   1.263       .  A
N1871      O1876   1.261       .  A
N1874      O1877   1.263       .  A
N1874      O1878   1.263       .  A
C1879      C1880   1.404       .  A
C1879      C1884   1.405       .  A
C1879      H1886   1.084       .  S
C1880      C1881   1.413       .  A
C1881      C1882   1.399       .  A
C1881      N1888   1.441       .  S
C1882      C1883   1.403       .  A
C1882      H1887   1.084       .  S
C1883      C1884   1.415       .  A
C1884      N1885   1.440       .  S
N1885      O1889   1.263       .  A
N1885      O1890   1.262       .  A
N1888      O1891   1.263       .  A
N1888      O1892   1.263       .  A
C1893      C1894   1.402       .  A
C1893      C1898   1.403       .  A
C1893      H1900   1.084       .  S
C1894      C1895   1.413       .  A
C1895      C1896   1.400       .  A
C1895      N1902   1.443       .  S
C1896      C1897   1.403       .  A
C1896      H1901   1.084       .  S
C1897      C1898   1.415       .  A
C1898      N1899   1.440       .  S
N1899      O1903   1.263       .  A
N1899      O1904   1.262       .  A
N1902      O1905   1.263       .  A
N1902      O1906   1.263       .  A
C1907      C1908   1.403       .  A
C1907      C1912   1.405       .  A
C1907      H1914   1.084       .  S
C1908      C1909   1.413       .  A
C1909      C1910   1.399       .  A
C1909      N1916   1.442       .  S
C1910      C1911   1.403       .  A
C1910      H1915   1.084       .  S
C1911      C1912   1.415       .  A
C1912      N1913   1.439       .  S
N1913      O1917   1.263       .  A
N1913      O1918   1.262       .  A
N1916      O1919   1.263       .  A
N1916      O1920   1.263       .  A
