geometry optimzed in LAMMPS
_audit_creation_date              2020-11-30 
_audit_creation_method            'lammps2cif' 
_symmetry_space_group_name_H-M    'P1' 
_symmetry_Int_Tables_number       1 
_symmetry_cell_setting            triclinic 
loop_ 
_symmetry_equiv_pos_as_xyz 
  x,y,z 
_cell_length_a                    41.796031938498366 
_cell_length_b                    43.18709846422357 
_cell_length_c                    43.71675485026261 
_cell_angle_alpha                 90.90593420224774 
_cell_angle_beta                  92.77233467896234 
_cell_angle_gamma                 90.63928616246254 
loop_ 
_atom_site_label 
_atom_site_type_symbol 
_atom_site_fract_x 
_atom_site_fract_y 
_atom_site_fract_z 
_atom_site_charge 
C1          C  0.37047099  0.37552267  0.35594695    -0.02560
C2          C  0.12500811  0.13806583  0.10823649    -0.02560
C3          C  0.04556785  0.40133650  0.46931648     0.42390
N4          N  0.03140221  0.44680854  0.45587277     0.01280
C5          C  0.03685302  0.07512177  0.05370574    -0.06600
H6          H  0.46971837  0.47331258  0.08652727     0.06770
C7          C  0.39261265  0.49664660  0.50491184    -0.06950
Co8        Co  0.05090212  0.49312330  0.50532833     0.74180
N9          N  0.50289548  0.48811027  0.05320915    -0.26130
Co10       Co  0.48365892  0.52753174  0.03246905     0.74070
C11         C  0.39079919  0.49550441  0.03835594     0.42490
N12         N  0.44144790  0.47576024  0.43837612     0.00890
N13         N  0.43922487  0.50584097  0.02689798     0.01000
N14         N  0.08098344  0.05222666  0.03609738    -0.46980
H15         H  0.06808455  0.41909032  0.51503975     0.06760
N16         N  0.02895808  0.47551220  0.04295527     0.01280
N17         N  0.46449603  0.06584385  0.00960381     0.01020
C18         C  0.45004938  0.11108695  0.99569217     0.42630
N19         N  0.46752174  0.46342683  0.42764286    -0.25580
C20         C  0.10245602  0.01880981  0.46280744    -0.06500
N21         N  0.03224831  0.41764832  0.44586888    -0.46690
N22         N  0.46371482  0.09514857  0.01925266    -0.46910
C23         C  0.10431162  0.02284863  0.42982153     0.42400
N24         N  0.05447814  0.03649473  0.02747228     0.01270
N25         N  0.49327320  0.02479376  0.41295944    -0.25610
N26         N  0.04522788  0.45051527  0.48347906    -0.26100
N27         N  0.46666770  0.03680163  0.42267188     0.00910
H28         H  0.52750039  0.04082001  0.38114495     0.06800
H29         H  0.42706355  0.09275472  0.45040469     0.06840
N30         N  0.02847031  0.04923819  0.03783114    -0.26150
N31         N  0.42353712  0.50329202  0.50001929    -0.25760
N32         N  0.05702564  0.00711850  0.43939160     0.01280
C33         C  0.01383494  0.44371706  0.07668692     0.42670
C34         C  0.45917866  0.43788814  0.41116220    -0.07010
N35         N  0.45034831  0.06180245  0.48216329    -0.25760
H36         H  0.37321393  0.49687576  0.48764821     0.06820
N37         N  0.03612148  0.44893667  0.05613515    -0.46980
H38         H  0.47521074  0.42376502  0.39833483     0.06810
C39         C  0.48271673  0.06964145  0.39016238     0.42510
C40         C  0.05475256  0.42312927  0.49370805    -0.06510
Co41       Co  0.01246291  0.98524068  0.43327122     0.73820
N42         N  0.41498706  0.46016106  0.42931584    -0.46700
C43         C  0.07150477  0.07718149  0.05226350     0.42770
N44         N  0.07547736  0.01467163  0.41692711    -0.46690
Co45       Co  0.44475115  0.01911962  0.46058032     0.73890
C46         C  0.44057020  0.08900289  0.97170340    -0.07020
C47         C  0.49171169  0.46983512  0.07497562    -0.06580
N48         N  0.07214566  0.00942473  0.46655034    -0.26110
N49         N  0.42064182  0.50151828  0.04998250    -0.46870
H50         H  0.52084257  0.08965886  0.06611999     0.06780
C51         C  0.50510694  0.04379905  0.39213109    -0.06990
Cl52       Cl  0.49791227  0.00622006  0.48291254    -0.49990
C53         C  0.42450989  0.43564267  0.41253464     0.42540
H54         H  0.12128256  0.02046188  0.48061777     0.06750
N55         N  0.45962112  0.06353935  0.40971122    -0.46700
C56         C  0.35359773  0.19482625  0.47180808     0.42390
N57         N  0.32010830  0.23160053  0.47713822     0.01280
C58         C  0.16698355  0.21350971  0.03132192    -0.06600
H59         H  0.17922980  0.19068026  0.41327916     0.06770
C60         C  0.20861784  0.29239398  0.39464639    -0.06950
Co61       Co  0.26052696  0.20558208  0.50318691     0.74180
N62         N  0.20974394  0.19891042  0.45361968    -0.26130
Co63       Co  0.19298515  0.24003721  0.47161327     0.74070
C64         C  0.18837706  0.26712964  0.38138632     0.42490
N65         N  0.27930669  0.30767480  0.43914657     0.00890
N66         N  0.19554002  0.26014684  0.42938712     0.01000
N67         N  0.21127125  0.18979448  0.05079963    -0.46980
H68         H  0.31616101  0.15815246  0.48315458     0.06760
N69         N  0.23634608  0.18605675  0.46430779     0.01280
N70         N  0.17687722  0.28202719  0.48809565     0.01020
C71         C  0.14360350  0.31905505  0.99304040     0.42630
N72         N  0.30501252  0.29419263  0.45119262    -0.25580
C73         C  0.28805160  0.22068521  0.07039485    -0.06500
N74         N  0.35048833  0.22587035  0.47218081    -0.46690
N75         N  0.14649833  0.28797447  0.99285704    -0.46910
C76         C  0.30814478  0.24587043  0.08392268     0.42400
N77         N  0.21750688  0.20564866  0.02598951     0.01270
N78         N  0.28702438  0.31458305  0.01164906    -0.25610
N79         N  0.30337941  0.20601334  0.48120533    -0.26100
N80         N  0.26054406  0.32744958  0.50069000     0.00910
H81         H  0.31700767  0.32272577  0.05236157     0.06800
H82         H  0.18142459  0.35544427  0.98195600     0.06840
N83         N  0.19191564  0.21939847  0.01403999    -0.26150
N84         N  0.21201300  0.28573259  0.42465218    -0.25760
N85         N  0.30125043  0.25324795  0.03595071     0.01280
C86         C  0.22397283  0.16136609  0.42210403     0.42670
C87         C  0.32988072  0.30023718  0.43385416    -0.07010
N88         N  0.19374870  0.30750899  0.48400026    -0.25760
H89         H  0.21904279  0.31210382  0.38367109     0.06820
N90         N  0.24621861  0.16388797  0.44570277    -0.46980
H91         H  0.35449637  0.29403736  0.43915068     0.06810
C92         C  0.27237116  0.35210192  0.04301301     0.42510
C93         C  0.32219459  0.18169293  0.47730747    -0.06510
Co94       Co  0.30391449  0.27350436  0.49369132     0.73820
N95         N  0.28534466  0.32344946  0.41425937    -0.46700
C96         C  0.18001045  0.19421468  0.05582735     0.42770
N97         N  0.31553797  0.26464373  0.06115366    -0.46690
Co98       Co  0.23641575  0.30779648  0.46190718     0.73890
C99         C  0.17514749  0.33196816  0.98782564    -0.07020
C100        C  0.19954156  0.18414806  0.42782071    -0.06580
N101        N  0.28481700  0.22757569  0.04046256    -0.26110
N102        N  0.18109178  0.24860716  0.40435295    -0.46870
H103        H  0.14243071  0.21990590  0.02599995     0.06780
C104        C  0.29689917  0.32930959  0.03757839    -0.06990
Cl105      Cl  0.24847005  0.25672469  0.48259972    -0.49990
C106        C  0.31661398  0.31930136  0.40923568     0.42540
H107        H  0.27759181  0.20086663  0.08115983     0.06750
N108        N  0.25044731  0.34959871  0.01916916    -0.46700
C109        C  0.11142532  0.24592184  0.27226156     0.42390
N110        N  0.06697328  0.23007921  0.25079563     0.01280
C111        C  0.47021424  0.32389895  0.16038415    -0.06600
H112        H  0.00437730  0.37392529  0.25448313     0.06770
C113        C  0.43641893  0.28677199  0.31154425    -0.06950
Co114      Co  0.04255775  0.27444359  0.20398124     0.74180
N115        N  0.01473407  0.32814570  0.23705022    -0.26130
Co116      Co  0.47112543  0.30507667  0.22660361     0.74070
C117        C  0.43554984  0.32069491  0.31238124     0.42490
N118        N  0.48499506  0.21696173  0.29447347     0.00890
N119        N  0.45886409  0.30534352  0.27216754     0.01000
N120        N  0.01863087  0.30829620  0.14621530    -0.46980
H121        H  0.11242826  0.28924663  0.24236291     0.06760
N122        N  0.04159138  0.31537074  0.22887086     0.01280
N123        N  0.42870453  0.28097205  0.21554359     0.01020
C124        C  0.38441554  0.26523390  0.19369648     0.42630
N125        N  0.51233572  0.20590924  0.28532091    -0.25580
C126        C  0.05825384  0.22487124  0.15422154    -0.06500
N127        N  0.08890666  0.22322196  0.27234786    -0.46690
N128        N  0.40687352  0.28798943  0.19397198    -0.46910
C129        C  0.05946384  0.19102194  0.15318633     0.42400
N130        N  0.01065345  0.29475564  0.17190887     0.01270
N131        N  0.48124479  0.18294683  0.22932902    -0.25610
N132        N  0.07362631  0.25604216  0.23689126    -0.26100
N133        N  0.45417200  0.19518073  0.23766579     0.00910
H134        H  0.49301527  0.13699864  0.21364474     0.06800
H135        H  0.38340755  0.22150245  0.22309721     0.06840
N136        N  0.48308099  0.30499697  0.18122131    -0.26150
N137        N  0.45124955  0.27936852  0.28580669    -0.25760
N138        N  0.03685732  0.20584705  0.19400317     0.01280
C139        C  0.05659868  0.36030217  0.24588561     0.42670
C140        C  0.02492268  0.18749763  0.30687220    -0.07010
N141        N  0.42204745  0.25483030  0.22914329    -0.25760
H142        H  0.42424051  0.27053253  0.32569512     0.06820
N143        N  0.06675934  0.33365093  0.23368768    -0.46980
H144        H  0.04485573  0.17228602  0.30349657     0.06810
C145        C  0.44066086  0.14921167  0.22223781     0.42510
C146        C  0.10135317  0.26772327  0.24879058    -0.06510
Co147      Co  0.02459930  0.20594446  0.23977460     0.73820
N148        N  0.47716447  0.20505576  0.32094843    -0.46700
C149        C  0.99425051  0.32727520  0.13755660     0.42770
N150        N  0.04632038  0.18102680  0.17885511    -0.46690
Co151      Co  0.45296238  0.23661857  0.26224923     0.73890
C152        C  0.39444178  0.24314452  0.21694866    -0.07020
C153        C  0.02170534  0.35693166  0.24797077    -0.06580
N154        N  0.04394449  0.23193697  0.18029269    -0.26110
N155        N  0.44936667  0.33034278  0.28697014    -0.46870
H156        H  0.44961254  0.33809831  0.16416387     0.06780
C157        C  0.47513540  0.15381160  0.21923911    -0.06870
Cl158      Cl  0.49780420  0.25550772  0.23315595    -0.49990
C159        C  0.50140278  0.18635703  0.33045065     0.42540
H160        H  0.06996767  0.24132227  0.13994405     0.06750
N161        N  0.42968926  0.17574288  0.23416975    -0.46700
C162        C  0.18958325  0.50381039  0.33547044     0.42390
N163        N  0.22662357  0.50630612  0.30298209     0.01280
C164        C  0.19909954  0.05855235  0.15398752    -0.06600
H165        H  0.16106705  0.44378649  0.17829268     0.06770
C166        C  0.27443920  0.41625279  0.18481855    -0.06950
Co167      Co  0.19908800  0.03560660  0.24589264     0.74180
N168        N  0.17970558  0.48497728  0.20165509    -0.26130
Co169      Co  0.22207610  0.49616372  0.18104134     0.74070
C170        C  0.24952878  0.40727389  0.16134772     0.42490
N171        N  0.29489643  0.45536584  0.26104457     0.00890
N172        N  0.23720812  0.45054023  0.18289491     0.01000
N173        N  0.18376587  0.08382523  0.19638512    -0.46980
H174        H  0.15137434  0.51901043  0.29969153     0.06760
N175        N  0.17052665  0.50060776  0.22578304     0.01280
N176        N  0.26553574  0.00678280  0.16174714     0.01020
C177        C  0.30196594  0.01536394  0.13004182     0.42630
N178        N  0.28581424  0.47041726  0.28567165    -0.25580
C179        C  0.21915046  0.09682429  0.27997029    -0.06500
N180        N  0.22159012  0.50138374  0.33233277    -0.46690
N181        N  0.26992858  0.01490490  0.13306409    -0.46910
C182        C  0.24420107  0.10549738  0.30346108     0.42400
N183        N  0.19841454  0.05756335  0.20345643     0.01270
N184        N  0.31325941  0.02746221  0.26364852    -0.25610
N185        N  0.19990653  0.51332497  0.28739454    -0.26100
N186        N  0.32203709  0.01279763  0.23878783     0.00910
H187        H  0.33341762  0.06636263  0.28968374     0.06800
H188        H  0.34175181  0.99968991  0.16408924     0.06840
N189        N  0.20698183  0.04207474  0.17892761    -0.26150
N190        N  0.26504053  0.44346722  0.19643420    -0.25760
N191        N  0.25590165  0.06208341  0.28187888     0.01280
C192        C  0.13541583  0.46433515  0.21928514     0.42670
C193        C  0.29421936  0.45397607  0.31053309    -0.07010
N194        N  0.29268847  0.00018163  0.17683418    -0.25760
H195        H  0.29826331  0.40708602  0.18832712     0.06820
N196        N  0.14444636  0.48876358  0.23731751    -0.46980
H197        H  0.29259716  0.46187150  0.33400922     0.06810
C198        C  0.35825528  0.04765222  0.24727909     0.42510
C199        C  0.17538328  0.51127727  0.30555432    -0.06510
Co200      Co  0.27060243  0.01635884  0.28381590     0.73820
N201        N  0.31029333  0.42945510  0.26802578    -0.46700
C202        C  0.18401243  0.08631658  0.16559095     0.42770
N203        N  0.26601302  0.08282271  0.30277213    -0.46690
Co204      Co  0.29392495  0.47760224  0.21851361     0.73890
C205        C  0.31700005  0.00542642  0.15882750    -0.07020
C206        C  0.15899225  0.46153485  0.19580162    -0.06580
N207        N  0.22823300  0.06952377  0.26821513    -0.26110
N208        N  0.22737525  0.42966888  0.16200792    -0.46870
H209        H  0.20078906  0.05058801  0.13054089     0.06780
C210        C  0.33485836  0.04981006  0.27098807    -0.06990
Cl211      Cl  0.24642624  0.50640214  0.23233238    -0.49990
C212        C  0.31017073  0.42669930  0.29881919     0.42540
H213        H  0.19546403  0.10632086  0.27648849     0.06750
N214        N  0.34857252  0.02441719  0.22795882    -0.46700
C215        C  0.41584396  0.11464769  0.25875420    -0.13420
C216        C  0.42481289  0.11980355  0.22873829     0.08730
C217        C  0.41469375  0.09906568  0.20520036    -0.13420
C218        C  0.39416953  0.07432127  0.21146467    -0.13420
C219        C  0.38353343  0.07042316  0.24125179     0.08730
C220        C  0.39535539  0.09018962  0.26496559    -0.13420
H221        H  0.42362671  0.13043771  0.27722123     0.12720
H222        H  0.42123918  0.10294822  0.18188445     0.12720
H223        H  0.38530913  0.05929103  0.19279278     0.12720
H224        H  0.38795205  0.08739013  0.28816075     0.12720
C225        C  0.08303065  0.44358484  0.23611425    -0.13420
C226        C  0.11525510  0.43901302  0.22970298     0.08730
C227        C  0.12859538  0.40967874  0.23311715    -0.13420
C228        C  0.10965758  0.38477768  0.24117385    -0.13420
C229        C  0.07673437  0.38848620  0.24512804     0.08730
C230        C  0.06365055  0.41827748  0.24350394    -0.13420
H231        H  0.07259036  0.46633699  0.23397744     0.12720
H232        H  0.15362810  0.40591246  0.22905029     0.12720
H233        H  0.12054044  0.36216308  0.24272759     0.12720
H234        H  0.03837406  0.42174991  0.24641525     0.12720
C235        C  0.29076006  0.36675612  0.09677848    -0.13420
C236        C  0.26648164  0.36623863  0.07330543     0.08730
C237        C  0.23609185  0.37731183  0.07979710    -0.13420
C238        C  0.23023655  0.38899647  0.10901691    -0.13420
C239        C  0.25467575  0.39006232  0.13236306     0.08730
C240        C  0.28490906  0.37839786  0.12598740    -0.13420
H241        H  0.31449688  0.35844384  0.09260101     0.12720
H242        H  0.21679837  0.37683225  0.06235504     0.12720
H243        H  0.20669516  0.39791585  0.11313420     0.12720
H244        H  0.30440202  0.37902452  0.14316996     0.12720
C245        C  0.25952223  0.13631977  0.38450804    -0.13420
C246        C  0.22921584  0.14704759  0.39173057     0.08730
C247        C  0.20429113  0.14600717  0.36886761    -0.13420
C248        C  0.20943379  0.13418811  0.33955450    -0.13420
C249        C  0.23960849  0.12290809  0.33245418     0.08730
C250        C  0.26467352  0.12447858  0.35518190    -0.13420
H251        H  0.27928656  0.13720074  0.40145275     0.12720
H252        H  0.18058366  0.15401064  0.37363162     0.12720
H253        H  0.18946795  0.13306921  0.32288852     0.12720
H254        H  0.28818705  0.11583455  0.35049380     0.12720
C255        C  0.16274546  0.23164830  0.34286290    -0.13420
C256        C  0.17467299  0.26150854  0.35030611     0.08730
C257        C  0.16934982  0.28558682  0.32968815    -0.13420
C258        C  0.15012486  0.28023773  0.30296986    -0.13420
C259        C  0.13615812  0.25080661  0.29689142     0.08730
C260        C  0.14357253  0.22637630  0.31648447    -0.13420
H261        H  0.16695057  0.21254537  0.35825024     0.12720
H262        H  0.17828339  0.30876457  0.33509434     0.12720
H263        H  0.14477025  0.29950096  0.28812880     0.12720
H264        H  0.13343663  0.20343527  0.31210259     0.12720
C265        C  0.33339949  0.28075616  0.12320960    -0.13420
C266        C  0.32168075  0.25099262  0.11512436     0.08730
C267        C  0.32696368  0.22651051  0.13529214    -0.13420
C268        C  0.34598668  0.23138718  0.16220607    -0.13420
C269        C  0.35976376  0.26075537  0.16894196     0.08730
C270        C  0.35233900  0.28557402  0.14981773    -0.13420
H271        H  0.32920964  0.30013682  0.10816078     0.12720
H272        H  0.31817339  0.20339457  0.12937973     0.12720
H273        H  0.35136539  0.21184363  0.17667520     0.12720
H274        H  0.36233499  0.30847916  0.15472538     0.12720
C275        C  0.40987005  0.14453927  0.01775537    -0.13420
C276        C  0.43442648  0.14103291  0.99740720     0.08730
C277        C  0.43531367  0.16006372  0.47165651    -0.13420
C278        C  0.40986966  0.17969364  0.46431467    -0.13420
C279        C  0.38333409  0.18002787  0.48253924     0.08730
C280        C  0.38426524  0.16383367  0.51022428    -0.13420
H281        H  0.40846529  0.12962282  0.03735936     0.12720
H282        H  0.45389697  0.15714466  0.45544273     0.12720
H283        H  0.40963053  0.19238496  0.44313648     0.12720
H284        H  0.36418476  0.16448385  0.02498559     0.12720
C285        C  0.08821474  0.37085126  0.44778199    -0.13420
C286        C  0.06229793  0.37208183  0.46680250     0.08730
C287        C  0.06064232  0.35141588  0.49119674    -0.13420
C288        C  0.08640249  0.33218655  0.49864303    -0.13420
C289        C  0.11405480  0.33402138  0.48200421     0.08730
C290        C  0.11412395  0.35204981  0.95548689    -0.13420
H291        H  0.09018813  0.38707634  0.42928263     0.12720
H292        H  0.04099329  0.35260945  0.50643473     0.12720
H293        H  0.08584035  0.31801584  0.51883076     0.12720
H294        H  0.13500517  0.35304680  0.94177080     0.12720
C295        C  0.15496154  0.99892059  0.41354520    -0.13420
C296        C  0.13285345  0.02321445  0.41162377     0.08730
C297        C  0.13367512  0.04375100  0.38730755    -0.13420
C298        C  0.15456398  0.03881284  0.36394167    -0.13420
C299        C  0.17446470  0.51274979  0.36406623     0.08730
C300        C  0.17576216  0.49367139  0.38974708    -0.13420
H301        H  0.15417177  0.98249521  0.43196581     0.12720
H302        H  0.11663060  0.06243197  0.38536036     0.12720
H303        H  0.15363554  0.05436700  0.34473174     0.12720
H304        H  0.19090719  0.47348943  0.39027424     0.12720
C305        C  0.33579066  0.48510468  0.05728011    -0.13420
C306        C  0.36320151  0.50405681  0.05636378     0.08730
C307        C  0.36657717  0.52982567  0.07635634    -0.13420
C308        C  0.34455198  0.03507411  0.09866032    -0.13420
C309        C  0.31841847  0.01499447  0.10115026     0.08730
C310        C  0.31340582  0.49055792  0.07970841    -0.13420
H311        H  0.33290393  0.46499464  0.04223526     0.12720
H312        H  0.38740161  0.54494847  0.07593106     0.12720
H313        H  0.34904692  0.05369316  0.11528380     0.12720
H314        H  0.29371278  0.47434704  0.08186050     0.12720
C315        C  0.98845353  0.41184020  0.11596196    -0.13420
C316        C  0.00959936  0.41390950  0.09227530     0.08730
C317        C  0.02592930  0.38714290  0.08319798    -0.13420
C318        C  0.02079957  0.35873516  0.09752319    -0.13420
C319        C  0.99917416  0.35664737  0.12102062     0.08730
C320        C  0.98334823  0.38369845  0.13016271    -0.13420
H321        H  0.97592629  0.43207577  0.12375749     0.12720
H322        H  0.04239913  0.38809512  0.06484318     0.12720
H323        H  0.53359877  0.33845248  0.09021987     0.12720
H324        H  0.96730626  0.38364588  0.14878875     0.12720
C325        C  0.46196343  0.12092155  0.37234140    -0.13420
C326        C  0.48766914  0.10043030  0.37661720     0.08730
C327        C  0.51833036  0.11006018  0.36883896    -0.13420
C328        C  0.52302729  0.13903606  0.35591722    -0.13420
C329        C  0.49708586  0.15885790  0.34986576     0.08730
C330        C  0.46657521  0.14982112  0.35891316    -0.13420
H331        H  0.43813058  0.11423236  0.37860410     0.12720
H332        H  0.03877266  0.09522011  0.37266672     0.12720
H333        H  0.04694923  0.14547831  0.34980948     0.12720
H334        H  0.44608149  0.16450302  0.35454359     0.12720
C335        C  0.16319514  0.10632398  0.14757469    -0.13340
C336        C  0.14558172  0.12120834  0.13068882    -0.14900
C337        C  0.08177067  0.17260445  0.13656290    -0.13340
C338        C  0.10130556  0.15691243  0.12399216    -0.14900
C339        C  0.16155557  0.17518558  0.07542674    -0.13340
C340        C  0.14523740  0.15857197  0.09052728    -0.14900
C341        C  0.10789316  0.11569598  0.08720968    -0.13340
C342        C  0.09242868  0.09782049  0.07053895    -0.14900
C343        C  0.38794841  0.39788063  0.37678457    -0.13340
C344        C  0.40358013  0.41544707  0.39368603    -0.14900
C345        C  0.35046786  0.35521436  0.37404173    -0.13340
C346        C  0.33467895  0.33844077  0.38945082    -0.14900
C347        C  0.33163923  0.40705870  0.31675012    -0.13340
C348        C  0.34964132  0.39233195  0.33350802    -0.14900
C349        C  0.41319092  0.33969540  0.32835232    -0.13340
C350        C  0.39387389  0.35617206  0.34030979    -0.14900
C351        C  0.37047200  0.37552339  0.85594716    -0.02560
C352        C  0.12500755  0.13806533  0.60823666    -0.02560
C353        C  0.04556868  0.40133742  0.96931689     0.42390
N354        N  0.03140298  0.44680946  0.95587323     0.01280
C355        C  0.03685246  0.07512166  0.55370541    -0.06600
H356        H  0.46971801  0.47331159  0.58652693     0.06770
C357        C  0.39261330  0.49664726  0.00491193    -0.06950
Co358      Co  0.05090272  0.49312418  0.00532885     0.74180
N359        N  0.50289502  0.48810934  0.55320874    -0.26130
Co360      Co  0.48365841  0.52753082  0.53246873     0.74070
C361        C  0.39079864  0.49550377  0.53835586     0.42490
N362        N  0.44144871  0.47576108  0.93837636     0.00890
N363        N  0.43922433  0.50584009  0.52689776     0.01000
N364        N  0.08098289  0.05222649  0.53609718    -0.46980
H365        H  0.06808516  0.41909119  0.01504027     0.06760
N366        N  0.02895759  0.47551132  0.54295479     0.01280
N367        N  0.46449546  0.06584353  0.50960332     0.01020
C368        C  0.45004869  0.11108651  0.49569141     0.42630
N369        N  0.46752259  0.46342769  0.92764317    -0.25580
C370        C  0.10245663  0.01881020  0.96280769    -0.06500
N371        N  0.03224920  0.41764927  0.94586928    -0.46690
N372        N  0.46371417  0.09514830  0.51925200    -0.46910
C373        C  0.10431230  0.02284923  0.92982181     0.42400
N374        N  0.05447759  0.03649461  0.52747200     0.01270
N375        N  0.49327377  0.02479475  0.91295973    -0.25610
N376        N  0.04522853  0.45051616  0.98347957    -0.26100
N377        N  0.46666824  0.03680251  0.92267221     0.00910
H378        H  0.52750101  0.04082129  0.88114542     0.06800
H379        H  0.42706416  0.09275546  0.95040535     0.06840
N380        N  0.02846975  0.04923809  0.53783079    -0.26150
N381        N  0.42353775  0.50329283  0.00001947    -0.25760
N382        N  0.05702621  0.00711927  0.93939175     0.01280
C383        C  0.01383457  0.44371616  0.57668645     0.42670
C384        C  0.45917959  0.43788899  0.91116249    -0.07010
N385        N  0.45034886  0.06180295  0.98216376    -0.25760
H386        H  0.37321463  0.49687630  0.98764824     0.06820
N387        N  0.03612105  0.44893580  0.55613463    -0.46980
H388        H  0.47521172  0.42376589  0.89833517     0.06810
C389        C  0.48271729  0.06964258  0.89016299     0.42510
C390        C  0.05475322  0.42313015  0.99370855    -0.06510
Co391      Co  0.01246346  0.98524154  0.93327119     0.73820
N392        N  0.41498791  0.46016187  0.92931602    -0.46700
C393        C  0.07150421  0.07718134  0.55226327     0.42770
N394        N  0.07547800  0.01467245  0.91692733    -0.46690
Co395      Co  0.44475167  0.01912024  0.96058053     0.73890
C396        C  0.44056960  0.08900230  0.47170276    -0.07020
C397        C  0.49171130  0.46983417  0.57497522    -0.06580
N398        N  0.07214622  0.00942523  0.96655051    -0.26110
N399        N  0.42064133  0.50151748  0.54998233    -0.46870
H400        H  0.52084202  0.08965866  0.56611969     0.06780
C401        C  0.50510754  0.04380022  0.89213155    -0.06990
Cl402      Cl  0.49791278  0.00622055  0.98291268    -0.49990
C403        C  0.42451081  0.43564349  0.91253486     0.42540
H404        H  0.12128317  0.02046201  0.98061804     0.06750
N405        N  0.45962164  0.06354031  0.90971174    -0.46700
C406        C  0.35359840  0.19482641  0.97180846     0.42390
N407        N  0.32010905  0.23160082  0.97713822     0.01280
C408        C  0.16698293  0.21350896  0.53132201    -0.06600
H409        H  0.17923039  0.19068092  0.91327917     0.06770
C410        C  0.20861870  0.29239451  0.89464618    -0.06950
Co411      Co  0.26052758  0.20558265  0.00318691     0.74180
N412        N  0.20974456  0.19891105  0.95361967    -0.26130
Co413      Co  0.19298592  0.24003794  0.97161319     0.74070
C414        C  0.18837777  0.26713024  0.88138619     0.42490
N415        N  0.27930773  0.30767507  0.93914629     0.00890
N416        N  0.19554086  0.26014745  0.92938698     0.01000
N417        N  0.21127071  0.18979381  0.55079970    -0.46980
H418        H  0.31616150  0.15815280  0.98315496     0.06760
N419        N  0.23634665  0.18605730  0.96430780     0.01280
N420        N  0.17687822  0.28202805  0.98809550     0.01020
C421        C  0.14360224  0.31905399  0.49304046     0.42630
N422        N  0.30501353  0.29419288  0.95119241    -0.25580
C423        C  0.28805116  0.22068444  0.57039486    -0.06500
N424        N  0.35048910  0.22587052  0.97218098    -0.46690
N425        N  0.14649727  0.28797343  0.49285708    -0.46910
C426        C  0.30814431  0.24586967  0.58392272     0.42400
N427        N  0.21750627  0.20564794  0.52598953     0.01270
N428        N  0.28702332  0.31458253  0.51164937    -0.25610
N429        N  0.30338006  0.20601370  0.98120538    -0.26100
N430        N  0.26054520  0.32745016  0.00068959     0.00910
H431        H  0.31700668  0.32272519  0.55236184     0.06800
H432        H  0.18142314  0.35544343  0.48195615     0.06840
N433        N  0.19191498  0.21939770  0.51404003    -0.26150
N434        N  0.21201394  0.28573313  0.92465196    -0.25760
N435        N  0.30124967  0.25324741  0.53595081     0.01280
C436        C  0.22397331  0.16136658  0.92210409     0.42670
C437        C  0.32988178  0.30023743  0.93385401    -0.07010
N438        N  0.19374982  0.30750975  0.98400002    -0.25760
H439        H  0.21904367  0.31210431  0.88367083     0.06820
N440        N  0.24621910  0.16388844  0.94570283    -0.46980
H441        H  0.35449742  0.29403765  0.93915063     0.06810
C442        C  0.27237005  0.35210123  0.54301349     0.42510
C443        C  0.32219519  0.18169321  0.97730773    -0.06510
Co444      Co  0.30391539  0.27350475  0.99369117     0.73820
N445        N  0.28534578  0.32344974  0.91425913    -0.46700
C446        C  0.18000991  0.19421400  0.55582746     0.42770
N447        N  0.31553730  0.26464311  0.56115375    -0.46690
Co448      Co  0.23641682  0.30779700  0.96190689     0.73890
C449        C  0.17514619  0.33196729  0.48782580    -0.07020
C450        C  0.19954213  0.18414867  0.92782073    -0.06580
N451        N  0.28481637  0.22757507  0.54046261    -0.26110
N452        N  0.18109248  0.24860782  0.90435286    -0.46870
H453        H  0.14243009  0.21990515  0.52600010     0.06780
C454        C  0.29689811  0.32930900  0.53757873    -0.06990
Cl455      Cl  0.24847089  0.25672524  0.98259958    -0.49990
C456        C  0.31661511  0.31930163  0.90923552     0.42540
H457        H  0.27759154  0.20086574  0.58115979     0.06750
N458        N  0.25044613  0.34959803  0.51916968    -0.46700
C459        C  0.11142534  0.24592249  0.77226184     0.42390
N460        N  0.06697337  0.23007962  0.75079597     0.01280
C461        C  0.47021401  0.32389810  0.66038354    -0.06600
H462        H  0.00437685  0.37392536  0.75448265     0.06770
C463        C  0.43641919  0.28677248  0.81154418    -0.06950
Co464      Co  0.04255773  0.27444357  0.70398121     0.74180
N465        N  0.01473379  0.32814581  0.73704973    -0.26130
Co466      Co  0.47112529  0.30507654  0.72660323     0.74070
C467        C  0.43555023  0.32069541  0.81238098     0.42490
N468        N  0.48499519  0.21696229  0.79447381     0.00890
N469        N  0.45886397  0.30534371  0.77216714     0.01000
N470        N  0.01863077  0.30829554  0.64621495    -0.46980
H471        H  0.11242820  0.28924709  0.74236293     0.06760
N472        N  0.04159117  0.31537089  0.72887051     0.01280
N473        N  0.42870447  0.28097171  0.71554335     0.01020
C474        C  0.38441561  0.26523323  0.69369622     0.42630
N475        N  0.51233590  0.20590980  0.78532138    -0.25580
C476        C  0.05825373  0.22487092  0.65422177    -0.06500
N477        N  0.08890675  0.22322255  0.77234825    -0.46690
N478        N  0.40687349  0.28798885  0.69397162    -0.46910
C479        C  0.05946368  0.19102161  0.65318673     0.42400
N480        N  0.01065338  0.29475521  0.67190864     0.01270
N481        N  0.48124510  0.18294683  0.72932961    -0.25610
N482        N  0.07362633  0.25604249  0.73689144    -0.26100
N483        N  0.45417225  0.19518068  0.73766628     0.00910
H484        H  0.49301575  0.13699865  0.71364539     0.06800
H485        H  0.38340773  0.22150199  0.72309726     0.06840
N486        N  0.48308088  0.30499645  0.68122094    -0.26150
N487        N  0.45124951  0.27936882  0.78580651    -0.25760
N488        N  0.03685750  0.20584696  0.69400365     0.01280
C489        C  0.05659829  0.36030234  0.74588530     0.42670
C490        C  0.02492295  0.18749859  0.80687292    -0.07010
N491        N  0.42204747  0.25483004  0.72914323    -0.25760
H492        H  0.42424098  0.27053314  0.82569534     0.06820
N493        N  0.06675908  0.33365112  0.73368742    -0.46980
H494        H  0.04485610  0.17228705  0.80349750     0.06810
C495        C  0.44066128  0.14921157  0.72223833     0.42510
C496        C  0.10135315  0.26772375  0.74879073    -0.06510
Co497      Co  0.02459948  0.20594468  0.73977508     0.73820
N498        N  0.47716467  0.20505665  0.82094893    -0.46700
C499        C  0.99425030  0.32727431  0.63755602     0.42770
N500        N  0.04632042  0.18102662  0.67885566    -0.46690
Co501      Co  0.45296245  0.23661870  0.76224938     0.73890
C502        C  0.39444189  0.24314405  0.71694859    -0.07020
C503        C  0.02170494  0.35693178  0.74797029    -0.06580
N504        N  0.04394458  0.23193680  0.68029299    -0.26110
N505        N  0.44936679  0.33034310  0.78696969    -0.46870
H506        H  0.44961221  0.33809738  0.66416307     0.06780
C507        C  0.47513582  0.15381156  0.71923974    -0.06870
Cl508      Cl  0.49780423  0.25550775  0.73315601    -0.49990
C509        C  0.50140308  0.18635815  0.83045139     0.42540
H510        H  0.06996737  0.24132185  0.63994405     0.06750
N511        N  0.42968956  0.17574276  0.73417021    -0.46700
C512        C  0.18958386  0.50381058  0.83547112     0.42390
N513        N  0.22662400  0.50630627  0.80298259     0.01280
C514        C  0.19909929  0.05855230  0.65398772    -0.06600
H515        H  0.16106699  0.44378653  0.67829328     0.06770
C516        C  0.27443929  0.41625280  0.68481889    -0.06950
Co517      Co  0.19908803  0.03560657  0.74589285     0.74180
N518        N  0.17970567  0.48497722  0.70165573    -0.26130
Co519      Co  0.22207611  0.49616366  0.68104184     0.74070
C520        C  0.24952872  0.40727384  0.66134821     0.42490
N521        N  0.29489674  0.45536603  0.76104490     0.00890
N522        N  0.23720817  0.45054020  0.68289542     0.01000
N523        N  0.18376565  0.08382516  0.69638535    -0.46980
H524        H  0.15137476  0.51901056  0.79969237     0.06760
N525        N  0.17052681  0.50060772  0.72578371     0.01280
N526        N  0.26553553  0.00678292  0.66174712     0.01020
C527        C  0.30196560  0.01536424  0.63004170     0.42630
N528        N  0.28581461  0.47041749  0.78567198    -0.25580
C529        C  0.21915051  0.09682425  0.77997054    -0.06500
N530        N  0.22159070  0.50138396  0.83233331    -0.46690
N531        N  0.26992825  0.01490509  0.63306407    -0.46910
C532        C  0.24420118  0.10549733  0.80346128     0.42400
N533        N  0.19841443  0.05756333  0.70345663     0.01270
N534        N  0.31325949  0.02746230  0.76364840    -0.25610
N535        N  0.19990687  0.51332507  0.78739514    -0.26100
N536        N  0.32203711  0.01279777  0.73878765     0.00910
H537        H  0.33341782  0.06636257  0.78968374     0.06800
H538        H  0.34175161  0.99969024  0.66408898     0.06840
N539        N  0.20698169  0.04207473  0.67892780    -0.26150
N540        N  0.26504066  0.44346723  0.69643458    -0.25760
N541        N  0.25590175  0.06208341  0.78187897     0.01280
C542        C  0.13541588  0.46433521  0.71928579     0.42670
C543        C  0.29421988  0.45397639  0.81053343    -0.07010
N544        N  0.29268832  0.00018180  0.67683406    -0.25760
H545        H  0.29826341  0.40708604  0.68832734     0.06820
N546        N  0.14444649  0.48876359  0.73731819    -0.46980
H547        H  0.29259778  0.46187187  0.83400955     0.06810
C548        C  0.35825537  0.04765226  0.74727900     0.42510
C549        C  0.17538373  0.51127740  0.80555505    -0.06510
Co550      Co  0.27060259  0.01635885  0.78381587     0.73820
N551        N  0.31029375  0.42945536  0.76802611    -0.46700
C552        C  0.18401213  0.08631648  0.66559116     0.42770
N553        N  0.26601316  0.08282269  0.80277224    -0.46690
Co554      Co  0.29392510  0.47760235  0.71851389     0.73890
C555        C  0.31699982  0.00542669  0.65882733    -0.07020
C556        C  0.15899228  0.46153485  0.69580226    -0.06580
N557        N  0.22823305  0.06952375  0.76821531    -0.26110
N558        N  0.22737519  0.42966881  0.66200850    -0.46870
H559        H  0.20078874  0.05058793  0.63054109     0.06780
C560        C  0.33485848  0.04981008  0.77098800    -0.06990
Cl561      Cl  0.24642640  0.50640221  0.73233279    -0.49990
C562        C  0.31017127  0.42669963  0.79881954     0.42540
H563        H  0.19546405  0.10632079  0.77648883     0.06750
N564        N  0.34857256  0.02441731  0.72795866    -0.46700
C565        C  0.41584442  0.11464737  0.75875453    -0.13420
C566        C  0.42481331  0.11980343  0.72873864     0.08730
C567        C  0.41469403  0.09906577  0.70520057    -0.13420
C568        C  0.39416971  0.07432140  0.71146473    -0.13420
C569        C  0.38353365  0.07042311  0.74125184     0.08730
C570        C  0.39535575  0.09018934  0.76496577    -0.13420
H571        H  0.42362726  0.13043724  0.77722165     0.12720
H572        H  0.42123940  0.10294848  0.68188467     0.12720
H573        H  0.38530918  0.05929133  0.69279274     0.12720
H574        H  0.38795244  0.08738970  0.78816092     0.12720
C575        C  0.08303043  0.44358498  0.73611428    -0.13420
C576        C  0.11525502  0.43901316  0.72970354     0.08730
C577        C  0.12859527  0.40967890  0.73311800    -0.13420
C578        C  0.10965732  0.38477784  0.74117443    -0.13420
C579        C  0.07673401  0.38848636  0.74512807     0.08730
C580        C  0.06365020  0.41827763  0.74350372    -0.13420
H581        H  0.07259016  0.46633712  0.73397722     0.12720
H582        H  0.15362808  0.40591263  0.72905153     0.12720
H583        H  0.12054015  0.36216324  0.74272838     0.12720
H584        H  0.03837363  0.42175006  0.74641460     0.12720
C585        C  0.29075938  0.36675568  0.59677878    -0.13420
C586        C  0.26648075  0.36623805  0.57330592     0.08730
C587        C  0.23609102  0.37731128  0.57979780    -0.13420
C588        C  0.23023601  0.38899611  0.60901762    -0.13420
C589        C  0.25467543  0.39006211  0.63236357     0.08730
C590        C  0.28490865  0.37839760  0.62598770    -0.13420
H591        H  0.31449616  0.35844338  0.59260116     0.12720
H592        H  0.21679740  0.37683159  0.56235590     0.12720
H593        H  0.20669466  0.39791551  0.61313506     0.12720
H594        H  0.30440177  0.37902438  0.64317010     0.12720
C595        C  0.25952251  0.13631976  0.88450823    -0.13420
C596        C  0.22921622  0.14704792  0.89173068     0.08730
C597        C  0.20429154  0.14600765  0.86886770    -0.13420
C598        C  0.20943412  0.13418843  0.83955463    -0.13420
C599        C  0.23960871  0.12290809  0.83245438     0.08730
C600        C  0.26467372  0.12447841  0.85518214    -0.13420
H601        H  0.27928681  0.13720059  0.90145297     0.12720
H602        H  0.18058414  0.15401137  0.87363164     0.12720
H603        H  0.18946830  0.13306969  0.82288861     0.12720
H604        H  0.28818717  0.11583413  0.85049409     0.12720
C605        C  0.16274598  0.23164895  0.84286285    -0.13420
C606        C  0.17467352  0.26150919  0.85030604     0.08730
C607        C  0.16935013  0.28558751  0.82968815    -0.13420
C608        C  0.15012497  0.28023843  0.80296997    -0.13420
C609        C  0.13615826  0.25080730  0.79689158     0.08730
C610        C  0.14357286  0.22637697  0.81648456    -0.13420
H611        H  0.16695124  0.21254601  0.85825014     0.12720
H612        H  0.17828369  0.30876526  0.83509433     0.12720
H613        H  0.14477021  0.29950168  0.78812898     0.12720
H614        H  0.13343697  0.20343593  0.81210270     0.12720
C615        C  0.33339900  0.28075537  0.62320967    -0.13420
C616        C  0.32168047  0.25099177  0.61512436     0.08730
C617        C  0.32696380  0.22650959  0.63529197    -0.13420
C618        C  0.34598695  0.23138628  0.66220581    -0.13420
C619        C  0.35976378  0.26075455  0.66894177     0.08730
C620        C  0.35233866  0.28557324  0.64981770    -0.13420
H621        H  0.32920886  0.30013607  0.60816098     0.12720
H622        H  0.31817368  0.20339360  0.62937949     0.12720
H623        H  0.35136596  0.21184270  0.67667482     0.12720
H624        H  0.36233447  0.30847844  0.65472540     0.12720
C625        C  0.40986975  0.14453928  0.51775474    -0.13420
C626        C  0.43442580  0.14103251  0.49740623     0.08730
C627        C  0.43531466  0.16006444  0.97165773    -0.13420
C628        C  0.40987060  0.17969424  0.96431572    -0.13420
C629        C  0.38333468  0.18002803  0.98253986     0.08730
C630        C  0.38426550  0.16383354  0.01022473    -0.13420
H631        H  0.40846521  0.12962307  0.53735894     0.12720
H632        H  0.45389825  0.15714568  0.95544422     0.12720
H633        H  0.40963174  0.19238582  0.94313770     0.12720
H634        H  0.36418475  0.16448429  0.52498544     0.12720
C635        C  0.08821605  0.37085282  0.94778244    -0.13420
C636        C  0.06229908  0.37208294  0.96680279     0.08730
C637        C  0.06064347  0.35141670  0.99119679    -0.13420
C638        C  0.08640370  0.33218742  0.99864296    -0.13420
C639        C  0.11405610  0.33402262  0.98200430     0.08730
C640        C  0.11412257  0.35204819  0.45548653    -0.13420
H641        H  0.09018945  0.38707814  0.92928329     0.12720
H642        H  0.04099432  0.35260995  0.00643466     0.12720
H643        H  0.08584150  0.31801642  0.01883048     0.12720
H644        H  0.13500374  0.35304489  0.44177034     0.12720
C645        C  0.15496179  0.99892048  0.91354535    -0.13420
C646        C  0.13285417  0.02321476  0.91162411     0.08730
C647        C  0.13367629  0.04375149  0.88730807    -0.13420
C648        C  0.15456510  0.03881315  0.86394217    -0.13420
C649        C  0.17446551  0.51275015  0.86406697     0.08730
C650        C  0.17576271  0.49367163  0.88974774    -0.13420
H651        H  0.15417166  0.98249494  0.93196580     0.12720
H652        H  0.11663212  0.06243278  0.88536101     0.12720
H653        H  0.15363698  0.05436744  0.84473236     0.12720
H654        H  0.19090745  0.47348948  0.89027483     0.12720
C655        C  0.33579003  0.48510448  0.55728012    -0.13420
C656        C  0.36320107  0.50405636  0.55636380     0.08730
C657        C  0.36657701  0.52982515  0.57635643    -0.13420
C658        C  0.34455143  0.03507438  0.59865994    -0.13420
C659        C  0.31841799  0.01499469  0.60115008     0.08730
C660        C  0.31340528  0.49055787  0.57970847    -0.13420
H661        H  0.33290307  0.46499451  0.54223520     0.12720
H662        H  0.38740159  0.54494777  0.57593116     0.12720
H663        H  0.34904635  0.05369356  0.61528330     0.12720
H664        H  0.29371208  0.47434717  0.58186054     0.12720
C665        C  0.98845364  0.41183940  0.61596180    -0.13420
C666        C  0.00959905  0.41390860  0.59227479     0.08730
C667        C  0.02592864  0.38714192  0.58319712    -0.13420
C668        C  0.02079894  0.35873417  0.59752231    -0.13420
C669        C  0.99917394  0.35664648  0.62102008     0.08730
C670        C  0.98334840  0.38369765  0.63016255    -0.13420
H671        H  0.97592671  0.43207505  0.62375760     0.12720
H672        H  0.04239815  0.38809408  0.56484205     0.12720
H673        H  0.53359787  0.33845138  0.59021873     0.12720
H674        H  0.96730680  0.38364515  0.64878890     0.12720
C675        C  0.46196383  0.12092261  0.87234202    -0.13420
C676        C  0.48766966  0.10043153  0.87661802     0.08730
C677        C  0.51833091  0.11006162  0.86884011    -0.13420
C678        C  0.52302777  0.13903754  0.85591842    -0.13420
C679        C  0.49708623  0.15885916  0.84986667     0.08730
C680        C  0.46657554  0.14982220  0.85891383    -0.13420
H681        H  0.43813095  0.11423325  0.87860448     0.12720
H682        H  0.03877329  0.09522175  0.87266808     0.12720
H683        H  0.04694972  0.14548001  0.84981091     0.12720
H684        H  0.44608175  0.16450394  0.85454404     0.12720
C685        C  0.16319466  0.10632369  0.64757492    -0.13340
C686        C  0.14558114  0.12120788  0.63068900    -0.14900
C687        C  0.08177027  0.17260402  0.63656317    -0.13340
C688        C  0.10130505  0.15691195  0.62399233    -0.14900
C689        C  0.16155507  0.17518497  0.57542692    -0.13340
C690        C  0.14523687  0.15857144  0.59052747    -0.14900
C691        C  0.10789258  0.11569551  0.58720981    -0.13340
C692        C  0.09242810  0.09782016  0.57053895    -0.14900
C693        C  0.38794943  0.39788137  0.87678476    -0.13340
C694        C  0.40358111  0.41544784  0.89368622    -0.14900
C695        C  0.35046900  0.35521497  0.87404193    -0.13340
C696        C  0.33468015  0.33844121  0.88945089    -0.14900
C697        C  0.33163996  0.40705922  0.81675044    -0.13340
C698        C  0.34964219  0.39233260  0.83350831    -0.14900
C699        C  0.41319165  0.33969609  0.82835227    -0.13340
C700        C  0.39387483  0.35617285  0.84030989    -0.14900
C701        C  0.37047128  0.87552268  0.35594721    -0.02560
C702        C  0.12500815  0.63806640  0.10823664    -0.02560
C703        C  0.04556787  0.90133652  0.46931652     0.42390
N704        N  0.03140219  0.94680856  0.45587282     0.01280
C705        C  0.03685299  0.57512260  0.05370567    -0.06600
H706        H  0.46971860  0.97331223  0.08652717     0.06770
C707        C  0.39261286  0.99664669  0.50491191    -0.06950
Co708      Co  0.05090206  0.99312331  0.50532840     0.74180
N709        N  0.50289565  0.98810994  0.05320902    -0.26130
Co710      Co  0.48365904  0.02753143  0.03246904     0.74070
C711        C  0.39079931  0.99550411  0.03835601     0.42490
N712        N  0.44144817  0.97576023  0.43837635     0.00890
N713        N  0.43922498  0.00584065  0.02689799     0.01000
N714        N  0.08098344  0.55222745  0.03609745    -0.46980
H715        H  0.06808446  0.91909033  0.51503984     0.06760
N716        N  0.02895784  0.97551138  0.04295475     0.01280
N717        N  0.46449593  0.56584413  0.00960369     0.01020
C718        C  0.45004915  0.61108717  0.99569194     0.42630
N719        N  0.46752203  0.96342679  0.42764316    -0.25580
C720        C  0.10245595  0.51880987  0.46280728    -0.06500
N721        N  0.03224836  0.91764836  0.44586890    -0.46690
N722        N  0.46371461  0.59514886  0.01925248    -0.46910
C723        C  0.10431148  0.52284869  0.42982136     0.42400
N724        N  0.05447816  0.53649547  0.02747240     0.01270
N725        N  0.49327297  0.52479382  0.41295936    -0.25610
N726        N  0.04522780  0.95051529  0.48347913    -0.26100
N727        N  0.46666750  0.53680169  0.42267186     0.00910
H728        H  0.52750015  0.54082015  0.38114489     0.06800
H729        H  0.42706351  0.59275475  0.45040494     0.06840
N730        N  0.02847031  0.54923894  0.03783118    -0.26150
N731        N  0.42353731  0.00329219  0.50001938    -0.25760
N732        N  0.05702553  0.50711853  0.43939152     0.01280
C733        C  0.01383460  0.94371617  0.07668628     0.42670
C734        C  0.45917898  0.93788805  0.41116257    -0.07010
N735        N  0.45034822  0.56180229  0.48216339    -0.25760
H736        H  0.37321416  0.99687571  0.48764823     0.06820
N737        N  0.03612116  0.94893577  0.05613451    -0.46980
H738        H  0.47521108  0.92376491  0.39833525     0.06810
C739        C  0.48271654  0.56964159  0.39016246     0.42510
C740        C  0.05475249  0.92312928  0.49370813    -0.06510
Co741      Co  0.01246284  0.48524063  0.43327121     0.73820
N742        N  0.41498735  0.96016102  0.42931609    -0.46700
C743        C  0.07150474  0.57718234  0.05226344     0.42770
N744        N  0.07547721  0.51467167  0.41692700    -0.46690
Co745      Co  0.44475096  0.51911955  0.46058026     0.73890
C746        C  0.44057010  0.58900305  0.97170319    -0.07020
C747        C  0.49171189  0.96983477  0.07497547    -0.06580
N748        N  0.07214561  0.50942476  0.46655023    -0.26110
N749        N  0.42064196  0.00151793  0.04998253    -0.46870
H750        H  0.52084249  0.58965923  0.06611992     0.06780
C751        C  0.50510673  0.54379918  0.39213107    -0.06990
Cl752      Cl  0.49791207  0.50621983  0.48291238    -0.49990
C753        C  0.42451020  0.93564258  0.41253499     0.42540
H754        H  0.12128253  0.52046195  0.48061758     0.06750
N755        N  0.45962094  0.56353945  0.40971130    -0.46700
C756        C  0.35359776  0.69482593  0.47180838     0.42390
N757        N  0.32010836  0.73160027  0.47713831     0.01280
C758        C  0.16698336  0.71351030  0.03132193    -0.06600
H759        H  0.17922979  0.69068012  0.41327926     0.06770
C760        C  0.20861806  0.79239375  0.39464633    -0.06950
Co761      Co  0.26052697  0.70558196  0.50318700     0.74180
N762        N  0.20974395  0.69891029  0.45361977    -0.26130
Co763      Co  0.19298522  0.74003713  0.47161328     0.74070
C764        C  0.18837726  0.76712941  0.38138629     0.42490
N765        N  0.27930690  0.80767454  0.43914651     0.00890
N766        N  0.19554017  0.76014668  0.42938709     0.01000
N767        N  0.21127109  0.68979518  0.05079973    -0.46980
H768        H  0.31616095  0.65815222  0.48315489     0.06760
N769        N  0.23634607  0.68605660  0.46430789     0.01280
N770        N  0.17687735  0.78202718  0.48809558     0.01020
C771        C  0.14360298  0.81905529  0.99303984     0.42630
N772        N  0.30501270  0.79419236  0.45119260    -0.25580
C773        C  0.28805139  0.72068591  0.07039490    -0.06500
N774        N  0.35048841  0.72587003  0.47218100    -0.46690
N775        N  0.14649800  0.78797473  0.99285671    -0.46910
C776        C  0.30814454  0.74587117  0.08392270     0.42400
N777        N  0.21750670  0.70564925  0.02598954     0.01270
N778        N  0.28702409  0.81458364  0.01164890    -0.25610
N779        N  0.30337943  0.70601311  0.48120545    -0.26100
N780        N  0.26054425  0.82744945  0.50068988     0.00910
H781        H  0.31700746  0.82272644  0.05236133     0.06800
H782        H  0.18142389  0.85544463  0.98195529     0.06840
N783        N  0.19191545  0.71939900  0.01403997    -0.26150
N784        N  0.21201319  0.78573240  0.42465212    -0.25760
N785        N  0.30125017  0.75324863  0.03595072     0.01280
C786        C  0.22397279  0.66136591  0.42210415     0.42670
C787        C  0.32988094  0.80023692  0.43385418    -0.07010
N788        N  0.19374888  0.80750894  0.48400014    -0.25760
H789        H  0.21904303  0.81210356  0.38367100     0.06820
N790        N  0.24621858  0.66388780  0.44570288    -0.46980
H791        H  0.35449658  0.79403712  0.43915077     0.06810
C792        C  0.27237089  0.85210251  0.04301284     0.42510
C793        C  0.32219459  0.68169267  0.47730771    -0.06510
Co794      Co  0.30391461  0.77350415  0.49369133     0.73820
N795        N  0.28534492  0.82344922  0.41425934    -0.46700
C796        C  0.18001028  0.69421537  0.05582745     0.42770
N797        N  0.31553771  0.76464445  0.06115366    -0.46690
Co798      Co  0.23641594  0.80779632  0.46190709     0.73890
C799        C  0.17514693  0.83196853  0.98782510    -0.07020
C800        C  0.19954154  0.68414791  0.42782082    -0.06580
N801        N  0.28481678  0.72757636  0.04046260    -0.26110
N802        N  0.18109193  0.74860698  0.40435294    -0.46870
H803        H  0.14243052  0.71990647  0.02599995     0.06780
C804        C  0.29689893  0.82931023  0.03757818    -0.06990
Cl805      Cl  0.24847014  0.75672455  0.48259972    -0.49990
C806        C  0.31661425  0.81930112  0.40923570     0.42540
H807        H  0.27759164  0.70086732  0.08115989     0.06750
N808        N  0.25044697  0.84959924  0.01916905    -0.46700
C809        C  0.11142503  0.74592182  0.27226184     0.42390
N810        N  0.06697295  0.73007922  0.25079599     0.01280
C811        C  0.47021439  0.82389885  0.16038411    -0.06600
H812        H  0.00437703  0.87392534  0.25448330     0.06770
C813        C  0.43641902  0.78677207  0.31154427    -0.06950
Co814      Co  0.04255744  0.77444356  0.20398154     0.74180
N815        N  0.01473377  0.82814571  0.23705043    -0.26130
Co816      Co  0.47112556  0.80507675  0.22660365     0.74070
C817        C  0.43555002  0.82069499  0.31238131     0.42490
N818        N  0.48499495  0.71696178  0.29447349     0.00890
N819        N  0.45886418  0.80534359  0.27216757     0.01000
N820        N  0.01863053  0.80829582  0.14621541    -0.46980
H821        H  0.11242798  0.78924659  0.24236316     0.06760
N822        N  0.04159107  0.81537072  0.22887112     0.01280
N823        N  0.42870462  0.78097221  0.21554359     0.01020
C824        C  0.38441561  0.76523420  0.19369642     0.42630
N825        N  0.51233561  0.70590926  0.28532097    -0.25580
C826        C  0.05825358  0.72487129  0.15422190    -0.06500
N827        N  0.08890636  0.72322195  0.27234819    -0.46690
N828        N  0.40687365  0.78798968  0.19397198    -0.46910
C829        C  0.05946365  0.69102200  0.15318668     0.42400
N830        N  0.01065316  0.79475551  0.17190913     0.01270
N831        N  0.48124472  0.68294689  0.22932904    -0.25610
N832        N  0.07362598  0.75604216  0.23689160    -0.26100
N833        N  0.45417193  0.69518083  0.23766576     0.00910
H834        H  0.49301516  0.63699868  0.21364478     0.06800
H835        H  0.38340749  0.72150271  0.22309709     0.06840
N836        N  0.48308116  0.80499698  0.18122136    -0.26150
N837        N  0.45124958  0.77936860  0.28580669    -0.25760
N838        N  0.03685708  0.70584703  0.19400351     0.01280
C839        C  0.05659840  0.86030215  0.24588585     0.42670
C840        C  0.02492228  0.68749768  0.30687254    -0.07010
N841        N  0.42204747  0.75483046  0.22914324    -0.25760
H842        H  0.42424058  0.77053262  0.32569514     0.06820
N843        N  0.06675905  0.83365089  0.23368795    -0.46980
H844        H  0.04485535  0.67228609  0.30349695     0.06810
C845        C  0.44066075  0.64921179  0.22223777     0.42510
C846        C  0.10135286  0.76772325  0.24879088    -0.06510
Co847      Co  0.02459899  0.70594446  0.23977493     0.73820
N848        N  0.47716433  0.70505587  0.32094846    -0.46700
C849        C  0.99425013  0.82727471  0.13755658     0.42770
N850        N  0.04632021  0.68102681  0.17885545    -0.46690
Co851      Co  0.45296234  0.73661866  0.26224921     0.73890
C852        C  0.39444178  0.74314476  0.21694857    -0.07020
C853        C  0.02170505  0.85693168  0.24797097    -0.06580
N854        N  0.04394420  0.73193697  0.18029304    -0.26110
N855        N  0.44936685  0.83034287  0.28697021    -0.46870
H856        H  0.44961267  0.83809821  0.16416376     0.06780
C857        C  0.47513530  0.65381167  0.21923912    -0.06870
Cl858      Cl  0.49780424  0.75550775  0.23315601    -0.49990
C859        C  0.50140262  0.68635714  0.33045074     0.42540
H860        H  0.06996738  0.74132234  0.13994442     0.06750
N861        N  0.42968916  0.67574301  0.23416969    -0.46700
C862        C  0.18958347  0.00381032  0.33547070     0.42390
N863        N  0.22662375  0.00630606  0.30298232     0.01280
C864        C  0.19909957  0.55855271  0.15398739    -0.06600
H865        H  0.16106710  0.94378620  0.17829306     0.06770
C866        C  0.27443931  0.91625260  0.18481875    -0.06950
Co867      Co  0.19908791  0.53560677  0.24589245     0.74180
N868        N  0.17970565  0.98497702  0.20165539    -0.26130
Co869      Co  0.22207615  0.99616345  0.18104158     0.74070
C870        C  0.24952884  0.90727369  0.16134796     0.42490
N871        N  0.29489658  0.95536575  0.26104483     0.00890
N872        N  0.23720817  0.95053998  0.18289524     0.01000
N873        N  0.18376590  0.58382552  0.19638503    -0.46980
H874        H  0.15137450  0.01901030  0.29969182     0.06760
N875        N  0.17052674  0.00060754  0.22578333     0.01280
N876        N  0.26553569  0.50678311  0.16174698     0.01020
C877        C  0.30196589  0.51536436  0.13004170     0.42630
N878        N  0.28581441  0.97041722  0.28567189    -0.25580
C879        C  0.21915038  0.59682438  0.27997027    -0.06500
N880        N  0.22159033  0.00138371  0.33233300    -0.46690
N881        N  0.26992853  0.51490530  0.13306397    -0.46910
C882        C  0.24420098  0.60549740  0.30346110     0.42400
N883        N  0.19841452  0.55756361  0.20345629     0.01270
N884        N  0.31325929  0.52746229  0.26364841    -0.25610
N885        N  0.19990668  0.01332488  0.28739478    -0.26100
N886        N  0.32203698  0.51279775  0.23878770     0.00910
H887        H  0.33341750  0.56636267  0.28968369     0.06800
H888        H  0.34175175  0.49969020  0.16408907     0.06840
N889        N  0.20698181  0.54207503  0.17892745    -0.26150
N890        N  0.26504063  0.94346700  0.19643446    -0.25760
N891        N  0.25590155  0.56208348  0.28187879     0.01280
C892        C  0.13541590  0.96433493  0.21928550     0.42670
C893        C  0.29421959  0.95397609  0.31053335    -0.07010
N894        N  0.29268841  0.50018189  0.17683400    -0.25760
H895        H  0.29826344  0.90708587  0.18832724     0.06820
N896        N  0.14444645  0.98876338  0.23731783    -0.46980
H897        H  0.29259741  0.96187156  0.33400947     0.06810
C898        C  0.35825517  0.54765232  0.24727903     0.42510
C899        C  0.17538346  0.01127717  0.30555459    -0.06510
Co900      Co  0.27060229  0.51635889  0.28381574     0.73820
N901        N  0.31029351  0.92945504  0.26802607    -0.46700
C902        C  0.18401251  0.58631694  0.16559086     0.42770
N903        N  0.26601292  0.58282273  0.30277210    -0.46690
Co904      Co  0.29392506  0.97760207  0.21851381     0.73890
C905        C  0.31700000  0.50542673  0.15882735    -0.07020
C906        C  0.15899232  0.96153458  0.19580198    -0.06580
N907        N  0.22823291  0.56952388  0.26821504    -0.26110
N908        N  0.22737527  0.92966864  0.16200825    -0.46870
H909        H  0.20078912  0.55058842  0.13054074     0.06780
C910        C  0.33485825  0.54981012  0.27098800    -0.06990
Cl911      Cl  0.24642634  0.00640197  0.23233258    -0.49990
C912        C  0.31017095  0.92669930  0.29881949     0.42540
H913        H  0.19546396  0.60632097  0.27648848     0.06750
N914        N  0.34857242  0.52441732  0.22795872    -0.46700
C915        C  0.41584378  0.61464784  0.25875415    -0.13420
C916        C  0.42481275  0.61980369  0.22873825     0.08730
C917        C  0.41469365  0.59906579  0.20520033    -0.13420
C918        C  0.39416944  0.57432138  0.21146463    -0.13420
C919        C  0.38353331  0.57042328  0.24125174     0.08730
C920        C  0.39535522  0.59018977  0.26496554    -0.13420
H921        H  0.42362650  0.63043788  0.27722118     0.12720
H922        H  0.42123911  0.60294832  0.18188442     0.12720
H923        H  0.38530907  0.55929112  0.19279274     0.12720
H924        H  0.38795186  0.58739029  0.28816069     0.12720
C925        C  0.08303061  0.94358476  0.23611451    -0.13420
C926        C  0.11525509  0.93901287  0.22970334     0.08730
C927        C  0.12859528  0.90967855  0.23311756    -0.13420
C928        C  0.10965739  0.88477754  0.24117423    -0.13420
C929        C  0.07673417  0.88848614  0.24512833     0.08730
C930        C  0.06365042  0.91827745  0.24350417    -0.13420
H931        H  0.07259039  0.96633694  0.23397765     0.12720
H932        H  0.15362800  0.90591222  0.22905077     0.12720
H933        H  0.12054019  0.86216292  0.24272802     0.12720
H934        H  0.03837393  0.92174995  0.24641540     0.12720
C935        C  0.29076010  0.86675685  0.09677817    -0.13420
C936        C  0.26648145  0.86623910  0.07330533     0.08730
C937        C  0.23609155  0.87731180  0.07979731    -0.13420
C938        C  0.23023636  0.88899621  0.10901725    -0.13420
C939        C  0.25467578  0.89006230  0.13236319     0.08730
C940        C  0.28490920  0.87839835  0.12598720    -0.13420
H941        H  0.31449700  0.85844496  0.09260044     0.12720
H942        H  0.21679791  0.87683200  0.06235543     0.12720
H943        H  0.20669488  0.89791521  0.11313479     0.12720
H944        H  0.30440233  0.87902524  0.14316958     0.12720
C945        C  0.25952218  0.63631965  0.38450811    -0.13420
C946        C  0.22921579  0.64704743  0.39173067     0.08730
C947        C  0.20429106  0.64600701  0.36886774    -0.13420
C948        C  0.20943371  0.63418801  0.33955460    -0.13420
C949        C  0.23960841  0.62290803  0.33245424     0.08730
C950        C  0.26467346  0.62447851  0.35518195    -0.13420
H951        H  0.27928652  0.63720061  0.40145281     0.12720
H952        H  0.18058358  0.65401044  0.37363178     0.12720
H953        H  0.18946785  0.63306912  0.32288864     0.12720
H954        H  0.28818699  0.61583451  0.35049381     0.12720
C955        C  0.16274556  0.73164812  0.34286288    -0.13420
C956        C  0.17467311  0.76150835  0.35030610     0.08730
C957        C  0.16934981  0.78558668  0.32968822    -0.13420
C958        C  0.15012471  0.78023764  0.30297002    -0.13420
C959        C  0.13615795  0.75080653  0.29689159     0.08730
C960        C  0.14357249  0.72637618  0.31648455    -0.13420
H961        H  0.16695077  0.71254516  0.35825017     0.12720
H962        H  0.17828339  0.80876442  0.33509443     0.12720
H963        H  0.14477000  0.79950091  0.28812904     0.12720
H964        H  0.13343657  0.70343515  0.31210266     0.12720
C965        C  0.33339962  0.78075676  0.12320956    -0.13420
C966        C  0.32168065  0.75099329  0.11512435     0.08730
C967        C  0.32696344  0.72651116  0.13529214    -0.13420
C968        C  0.34598651  0.73138772  0.16220603    -0.13420
C969        C  0.35976380  0.76075581  0.16894190     0.08730
C970        C  0.35233920  0.78557451  0.14981767    -0.13420
H971        H  0.32920989  0.80013744  0.10816074     0.12720
H972        H  0.31817295  0.70339527  0.12937975     0.12720
H973        H  0.35136508  0.71184414  0.17667517     0.12720
H974        H  0.36233536  0.80847958  0.15472529     0.12720
C975        C  0.40986995  0.64453966  0.01775520    -0.13420
C976        C  0.43442621  0.64103313  0.99740689     0.08730
C977        C  0.43531388  0.66006372  0.47165718    -0.13420
C978        C  0.40986983  0.67969359  0.46431530    -0.13420
C979        C  0.38333409  0.68002755  0.48253964     0.08730
C980        C  0.38426507  0.66383312  0.51022456    -0.13420
H981        H  0.40846525  0.62962327  0.03735926     0.12720
H982        H  0.45389733  0.65714486  0.45544353     0.12720
H983        H  0.40963085  0.69238509  0.44313722     0.12720
H984        H  0.36418482  0.66448450  0.02498569     0.12720
C985        C  0.08821496  0.87085153  0.44778204    -0.13420
C986        C  0.06229809  0.87208193  0.46680249     0.08730
C987        C  0.06064248  0.85141586  0.49119665    -0.13420
C988        C  0.08640267  0.83218654  0.49864288    -0.13420
C989        C  0.11405501  0.83402151  0.48200411     0.08730
C990        C  0.11412322  0.85204947  0.95548594    -0.13420
H991        H  0.09018834  0.88707670  0.42928276     0.12720
H992        H  0.04099341  0.85260931  0.50643459     0.12720
H993        H  0.08584051  0.81801573  0.51883053     0.12720
H994        H  0.13500446  0.85304644  0.94176986     0.12720
C995        C  0.15496142  0.49892072  0.41354499    -0.13420
C996        C  0.13285326  0.52321453  0.41162355     0.08730
C997        C  0.13367485  0.54375103  0.38730728    -0.13420
C998        C  0.15456368  0.53881286  0.36394137    -0.13420
C999        C  0.17446494  0.01274973  0.36406650     0.08730
C1000       C  0.17576231  0.99367126  0.38974730    -0.13420
H1001       H  0.15417172  0.48249537  0.43196564     0.12720
H1002       H  0.11663028  0.56243196  0.38536008     0.12720
H1003       H  0.15363518  0.55436699  0.34473143     0.12720
H1004       H  0.19090728  0.97348927  0.39027445     0.12720
C1005       C  0.33579070  0.98510447  0.05728012    -0.13420
C1006       C  0.36320166  0.00405648  0.05636393     0.08730
C1007       C  0.36657742  0.02982521  0.07635665    -0.13420
C1008       C  0.34455175  0.53507459  0.09866002    -0.13420
C1009       C  0.31841836  0.51499484  0.10115012     0.08730
C1010       C  0.31340585  0.99055768  0.07970841    -0.13420
H1011       H  0.33290389  0.96499454  0.04223513     0.12720
H1012       H  0.38740193  0.04494792  0.07593148     0.12720
H1013       H  0.34904663  0.55369375  0.11528340     0.12720
H1014       H  0.29371271  0.97434689  0.08186037     0.12720
C1015       C  0.98845323  0.91183955  0.11596147    -0.13420
C1016       C  0.00959899  0.91390867  0.09227474     0.08730
C1017       C  0.02592882  0.88714199  0.08319748    -0.13420
C1018       C  0.02079907  0.85873434  0.09752285    -0.13420
C1019       C  0.99917375  0.85664674  0.12102037     0.08730
C1020       C  0.98334790  0.88369789  0.13016237    -0.13420
H1021       H  0.97592607  0.93207518  0.12375696     0.12720
H1022       H  0.04239859  0.88809409  0.06484263     0.12720
H1023       H  0.53359878  0.83845210  0.09021966     0.12720
H1024       H  0.96730600  0.88364547  0.14878847     0.12720
C1025       C  0.46196323  0.62092170  0.37234148    -0.13420
C1026       C  0.48766896  0.60043047  0.37661734     0.08730
C1027       C  0.51833019  0.61006038  0.36883918    -0.13420
C1028       C  0.52302713  0.63903626  0.35591745    -0.13420
C1029       C  0.49708569  0.65885806  0.34986590     0.08730
C1030       C  0.46657502  0.64982126  0.35891323    -0.13420
H1031       H  0.43813037  0.61423249  0.37860412     0.12720
H1032       H  0.03877236  0.59522028  0.37266713     0.12720
H1033       H  0.04694886  0.64547853  0.34980998     0.12720
H1034       H  0.44608129  0.66450313  0.35454360     0.12720
C1035       C  0.16319526  0.60632440  0.14757464    -0.13340
C1036       C  0.14558182  0.62120883  0.13068883    -0.14900
C1037       C  0.08177058  0.67260464  0.13656326    -0.13340
C1038       C  0.10130557  0.65691281  0.12399245    -0.14900
C1039       C  0.16155544  0.67518633  0.07542691    -0.13340
C1040       C  0.14523734  0.65857269  0.09052748    -0.14900
C1041       C  0.10789318  0.61569665  0.08720975    -0.13340
C1042       C  0.09242864  0.59782127  0.07053896    -0.14900
C1043       C  0.38794871  0.89788058  0.37678487    -0.13340
C1044       C  0.40358045  0.91544699  0.39368635    -0.14900
C1045       C  0.35046817  0.85521429  0.37404194    -0.13340
C1046       C  0.33467926  0.83844061  0.38945095    -0.14900
C1047       C  0.33163947  0.90705874  0.31675044    -0.13340
C1048       C  0.34964158  0.89233200  0.33350833    -0.14900
C1049       C  0.41319116  0.83969550  0.32835244    -0.13340
C1050       C  0.39387416  0.85617213  0.34030998    -0.14900
C1051       C  0.37047210  0.87552332  0.85594693    -0.02560
C1052       C  0.12500749  0.63806534  0.60823667    -0.02560
C1053       C  0.04556807  0.90133705  0.96931591     0.42390
N1054       N  0.03140265  0.94680924  0.95587249     0.01280
C1055       C  0.03685247  0.57512159  0.55370542    -0.06600
H1056       H  0.46971814  0.97331207  0.58652713     0.06770
C1057       C  0.39261337  0.99664702  0.00491200    -0.06950
Co1058     Co  0.05090255  0.99312357  0.00532843     0.74180
N1059       N  0.50289518  0.98810983  0.55320897    -0.26130
Co1060     Co  0.48365852  0.02753123  0.53246880     0.74070
C1061       C  0.39079879  0.99550398  0.53835592     0.42490
N1062       N  0.44144870  0.97576099  0.93837626     0.00890
N1063       N  0.43922447  0.00584042  0.52689787     0.01000
N1064       N  0.08098291  0.55222650  0.53609712    -0.46980
H1065       H  0.06808460  0.91909045  0.01503940     0.06760
N1066       N  0.02895742  0.97551137  0.54295482     0.01280
N1067       N  0.46449541  0.56584323  0.50960343     0.01020
C1068       C  0.45004874  0.61108631  0.49569172     0.42630
N1069       N  0.46752258  0.96342767  0.92764300    -0.25580
C1070       C  0.10245670  0.51881073  0.96280794    -0.06500
N1071       N  0.03224870  0.91764910  0.94586838    -0.46690
N1072       N  0.46371420  0.59514796  0.51925223    -0.46910
C1073       C  0.10431233  0.52284958  0.92982204     0.42400
N1074       N  0.05447763  0.53649459  0.52747194     0.01270
N1075       N  0.49327382  0.52479472  0.91295975    -0.25610
N1076       N  0.04522820  0.95051572  0.98347886    -0.26100
N1077       N  0.46666830  0.53680254  0.92267217     0.00910
H1078       H  0.52750110  0.54082111  0.88114541     0.06800
H1079       H  0.42706406  0.59275555  0.95040513     0.06840
N1080       N  0.02846978  0.54923802  0.53783078    -0.26150
N1081       N  0.42353782  0.00329257  0.00001950    -0.25760
N1082       N  0.05702633  0.50711945  0.93939207     0.01280
C1083       C  0.01383427  0.94371621  0.57668643     0.42670
C1084       C  0.45917959  0.93788901  0.91116225    -0.07010
N1085       N  0.45034881  0.56180315  0.98216363    -0.25760
H1086       H  0.37321467  0.99687613  0.98764833     0.06820
N1087       N  0.03612081  0.94893584  0.55613467    -0.46980
H1088       H  0.47521172  0.92376597  0.89833487     0.06810
C1089       C  0.48271741  0.56964249  0.89016286     0.42510
C1090       C  0.05475271  0.92312960  0.99370769    -0.06510
Co1091     Co  0.01246366  0.48524154  0.93327164     0.73820
N1092       N  0.41498791  0.96016178  0.92931590    -0.46700
C1093       C  0.07150422  0.57718132  0.55226325     0.42770
N1094       N  0.07547808  0.51467259  0.91692760    -0.46690
Co1095     Co  0.44475167  0.51912039  0.96058050     0.73890
C1096       C  0.44056957  0.58900222  0.47170298    -0.07020
C1097       C  0.49171147  0.96983467  0.57497548    -0.06580
N1098       N  0.07214634  0.50942564  0.96655082    -0.26110
N1099       N  0.42064143  0.00151785  0.54998242    -0.46870
H1100       H  0.52084200  0.58965810  0.56611980     0.06780
C1101       C  0.50510763  0.54380010  0.89213152    -0.06990
Cl1102     Cl  0.49791273  0.50622072  0.98291276    -0.49990
C1103       C  0.42451082  0.93564346  0.91253465     0.42540
H1104       H  0.12128324  0.52046276  0.98061829     0.06750
N1105       N  0.45962174  0.56354030  0.90971161    -0.46700
C1106       C  0.35359823  0.69482694  0.97180853     0.42390
N1107       N  0.32010889  0.73160136  0.97713829     0.01280
C1108       C  0.16698293  0.71350899  0.53132204    -0.06600
H1109       H  0.17923031  0.69068125  0.91327920     0.06770
C1110       C  0.20861851  0.79239485  0.89464603    -0.06950
Co1111     Co  0.26052741  0.70558322  0.00318697     0.74180
N1112       N  0.20974445  0.69891147  0.95361970    -0.26130
Co1113     Co  0.19298575  0.74003836  0.97161312     0.74070
C1114       C  0.18837763  0.76713053  0.88138606     0.42490
N1115       N  0.27930751  0.80767554  0.93914619     0.00890
N1116       N  0.19554070  0.76014781  0.92938686     0.01000
N1117       N  0.21127066  0.68979382  0.55079978    -0.46980
H1118       H  0.31616134  0.65815334  0.98315508     0.06760
N1119       N  0.23634654  0.68605776  0.96430788     0.01280
N1120       N  0.17687795  0.78202845  0.98809533     0.01020
C1121       C  0.14360244  0.81905406  0.49304031     0.42630
N1122       N  0.30501328  0.79419335  0.95119234    -0.25580
C1123       C  0.28805116  0.72068440  0.57039494    -0.06500
N1124       N  0.35048894  0.72587105  0.97218105    -0.46690
N1125       N  0.14649741  0.78797349  0.49285699    -0.46910
C1126       C  0.30814434  0.74586962  0.58392277     0.42400
N1127       N  0.21750626  0.70564792  0.52598960     0.01270
N1128       N  0.28702349  0.81458238  0.51164929    -0.25610
N1129       N  0.30337991  0.70601425  0.98120547    -0.26100
N1130       N  0.26054486  0.82745070  0.00068946     0.00910
H1131       H  0.31700681  0.82272506  0.55236178     0.06800
H1132       H  0.18142343  0.85544340  0.48195596     0.06840
N1133       N  0.19191500  0.71939769  0.51404007    -0.26150
N1134       N  0.21201373  0.78573351  0.92465182    -0.25760
N1135       N  0.30124973  0.75324729  0.53595084     0.01280
C1136       C  0.22397324  0.66136696  0.92210420     0.42670
C1137       C  0.32988155  0.80023780  0.93385393    -0.07010
N1138       N  0.19374944  0.80751020  0.98399976    -0.25760
H1139       H  0.21904344  0.81210465  0.88367067     0.06820
N1140       N  0.24621902  0.66388887  0.94570295    -0.46980
H1141       H  0.35449718  0.79403798  0.93915056     0.06810
C1142       C  0.27237022  0.85210113  0.54301335     0.42510
C1143       C  0.32219502  0.68169375  0.97730784    -0.06510
Co1144     Co  0.30391515  0.77350532  0.99369113     0.73820
N1145       N  0.28534559  0.82345012  0.91425897    -0.46700
C1146       C  0.18000987  0.69421403  0.55582751     0.42770
N1147       N  0.31553737  0.76464301  0.56115377    -0.46690
Co1148     Co  0.23641653  0.80779747  0.96190673     0.73890
C1149       C  0.17514642  0.83196728  0.48782564    -0.07020
C1150       C  0.19954204  0.68414904  0.92782077    -0.06580
N1151       N  0.28481639  0.72757498  0.54046268    -0.26110
N1152       N  0.18109236  0.74860812  0.90435275    -0.46870
H1153       H  0.14243009  0.71990519  0.52600010     0.06780
C1154       C  0.29689827  0.82930887  0.53757864    -0.06990
Cl1155     Cl  0.24847067  0.75672575  0.98259953    -0.49990
C1156       C  0.31661492  0.81930193  0.90923538     0.42540
H1157       H  0.27759151  0.70086573  0.58115991     0.06750
N1158       N  0.25044633  0.84959793  0.51916952    -0.46700
C1159       C  0.11142528  0.74592254  0.77226171     0.42390
N1160       N  0.06697330  0.73007961  0.75079588     0.01280
C1161       C  0.47021425  0.82389829  0.66038352    -0.06600
H1162       H  0.00437667  0.87392530  0.75448267     0.06770
C1163       C  0.43641945  0.78677242  0.81154405    -0.06950
Co1164     Co  0.04255755  0.77444354  0.70398115     0.74180
N1165       N  0.01473361  0.82814575  0.73704972    -0.26130
Co1166     Co  0.47112553  0.80507653  0.72660310     0.74070
C1167       C  0.43555045  0.82069534  0.81238087     0.42490
N1168       N  0.48499546  0.71696223  0.79447361     0.00890
N1169       N  0.45886423  0.80534368  0.77216703     0.01000
N1170       N  0.01863050  0.80829557  0.64621494    -0.46980
H1171       H  0.11242805  0.78924713  0.74236277     0.06760
N1172       N  0.04159098  0.81537085  0.72887046     0.01280
N1173       N  0.42870469  0.78097171  0.71554324     0.01020
C1174       C  0.38441580  0.76523325  0.69369616     0.42630
N1175       N  0.51233616  0.70590973  0.78532114    -0.25580
C1176       C  0.05825355  0.72487090  0.65422169    -0.06500
N1177       N  0.08890671  0.72322258  0.77234815    -0.46690
N1178       N  0.40687369  0.78798886  0.69397154    -0.46910
C1179       C  0.05946354  0.69102159  0.65318667     0.42400
N1180       N  0.01065315  0.79475519  0.67190862     0.01270
N1181       N  0.48124528  0.68294680  0.72932941    -0.25610
N1182       N  0.07362621  0.75604249  0.73689133    -0.26100
N1183       N  0.45417245  0.69518068  0.73766610     0.00910
H1184       H  0.49301588  0.63699860  0.71364523     0.06800
H1185       H  0.38340795  0.72150201  0.72309720     0.06840
N1186       N  0.48308108  0.80499650  0.68122081    -0.26150
N1187       N  0.45124980  0.77936878  0.78580639    -0.25760
N1188       N  0.03685738  0.70584693  0.69400360     0.01280
C1189       C  0.05659810  0.86030230  0.74588526     0.42670
C1190       C  0.02492295  0.68749841  0.80687284    -0.07010
N1191       N  0.42204770  0.75483005  0.72914312    -0.25760
H1192       H  0.42424123  0.77053305  0.82569518     0.06820
N1193       N  0.06675889  0.83365109  0.73368736    -0.46980
H1194       H  0.04485608  0.67228687  0.80349734     0.06810
C1195       C  0.44066143  0.64921156  0.72223823     0.42510
C1196       C  0.10135303  0.76772378  0.74879059    -0.06510
Co1197     Co  0.02459943  0.70594463  0.73977505     0.73820
N1198       N  0.47716496  0.70505653  0.82094871    -0.46700
C1199       C  0.99425003  0.82727436  0.63755607     0.42770
N1200       N  0.04632031  0.68102659  0.67885561    -0.46690
Co1201     Co  0.45296270  0.73661868  0.76224923     0.73890
C1202       C  0.39444210  0.74314407  0.71694852    -0.07020
C1203       C  0.02170476  0.85693173  0.74797028    -0.06580
N1204       N  0.04394441  0.73193677  0.68029292    -0.26110
N1205       N  0.44936702  0.83034305  0.78696959    -0.46870
H1206       H  0.44961248  0.83809760  0.66416314     0.06780
C1207       C  0.47513596  0.65381153  0.71923958    -0.06870
Cl1208     Cl  0.49780446  0.75550773  0.73315581    -0.49990
C1209       C  0.50140334  0.68635798  0.83045111     0.42540
H1210       H  0.06996717  0.74132184  0.63994396     0.06750
N1211       N  0.42968975  0.67574278  0.73417009    -0.46700
C1212       C  0.18958389  0.00381017  0.83547095     0.42390
N1213       N  0.22662400  0.00630599  0.80298241     0.01280
C1214       C  0.19909934  0.55855246  0.65398784    -0.06600
H1215       H  0.16106688  0.94378634  0.67829313     0.06770
C1216       C  0.27443926  0.91625263  0.68481872    -0.06950
Co1217     Co  0.19908807  0.53560679  0.74589299     0.74180
N1218       N  0.17970561  0.98497701  0.70165559    -0.26130
Co1219     Co  0.22207604  0.99616348  0.68104167     0.74070
C1220       C  0.24952870  0.90727365  0.66134804     0.42490
N1221       N  0.29489676  0.95536584  0.76104465     0.00890
N1222       N  0.23720813  0.95054002  0.68289523     0.01000
N1223       N  0.18376567  0.58382533  0.69638544    -0.46980
H1224       H  0.15137476  0.01901022  0.79969227     0.06760
N1225       N  0.17052677  0.00060751  0.72578356     0.01280
N1226       N  0.26553562  0.50678307  0.66174730     0.01020
C1227       C  0.30196570  0.51536429  0.63004188     0.42630
N1228       N  0.28581463  0.97041727  0.78567175    -0.25580
C1229       C  0.21915052  0.59682448  0.77997070    -0.06500
N1230       N  0.22159073  0.00138360  0.83233311    -0.46690
N1231       N  0.26992835  0.51490518  0.63306424    -0.46910
C1232       C  0.24420118  0.60549756  0.80346145     0.42400
N1233       N  0.19841448  0.55756353  0.70345676     0.01270
N1234       N  0.31325952  0.52746249  0.76364859    -0.25610
N1235       N  0.19990687  0.01332481  0.78739498    -0.26100
N1236       N  0.32203714  0.51279792  0.73878787     0.00910
H1237       H  0.33341786  0.56636280  0.78968388     0.06800
H1238       H  0.34175169  0.49969029  0.66408919     0.06840
N1239       N  0.20698176  0.54207492  0.67892793    -0.26150
N1240       N  0.26504063  0.94346707  0.69643438    -0.25760
N1241       N  0.25590177  0.56208365  0.78187912     0.01280
C1242       C  0.13541579  0.96433505  0.71928564     0.42670
C1243       C  0.29421994  0.95397616  0.81053318    -0.07010
N1244       N  0.29268839  0.50018193  0.67683426    -0.25760
H1245       H  0.29826339  0.90708588  0.68832718     0.06820
N1246       N  0.14444643  0.98876342  0.73731804    -0.46980
H1247       H  0.29259785  0.96187163  0.83400931     0.06810
C1248       C  0.35825542  0.54765240  0.74727917     0.42510
C1249       C  0.17538373  0.01127707  0.80555490    -0.06510
Co1250     Co  0.27060260  0.51635908  0.78381606     0.73820
N1251       N  0.31029381  0.92945519  0.76802584    -0.46700
C1252       C  0.18401215  0.58631662  0.66559125     0.42770
N1253       N  0.26601316  0.58282292  0.80277241    -0.46690
Co1254     Co  0.29392507  0.97760219  0.71851367     0.73890
C1255       C  0.31699991  0.50542677  0.65882753    -0.07020
C1256       C  0.15899220  0.96153466  0.69580212    -0.06580
N1257       N  0.22823308  0.56952399  0.76821545    -0.26110
N1258       N  0.22737515  0.92966862  0.66200832    -0.46870
H1259       H  0.20078879  0.55058806  0.63054122     0.06780
C1260       C  0.33485853  0.54981027  0.77098816    -0.06990
Cl1261     Cl  0.24642636  0.00640201  0.73233261    -0.49990
C1262       C  0.31017136  0.92669944  0.79881926     0.42540
H1263       H  0.19546406  0.60632100  0.77648898     0.06750
N1264       N  0.34857259  0.52441743  0.72795886    -0.46700
C1265       C  0.41584454  0.61464749  0.75875453    -0.13420
C1266       C  0.42481344  0.61980344  0.72873863     0.08730
C1267       C  0.41469413  0.59906574  0.70520061    -0.13420
C1268       C  0.39416978  0.57432141  0.71146483    -0.13420
C1269       C  0.38353371  0.57042322  0.74125195     0.08730
C1270       C  0.39535583  0.59018950  0.76496583    -0.13420
H1271       H  0.42362740  0.63043739  0.77722161     0.12720
H1272       H  0.42123952  0.60294837  0.68188470     0.12720
H1273       H  0.38530925  0.55929130  0.69279288     0.12720
H1274       H  0.38795250  0.58738994  0.78816099     0.12720
C1275       C  0.08303027  0.94358489  0.73611402    -0.13420
C1276       C  0.11525489  0.93901304  0.72970341     0.08730
C1277       C  0.12859514  0.90967879  0.73311803    -0.13420
C1278       C  0.10965716  0.88477778  0.74117451    -0.13420
C1279       C  0.07673383  0.88848631  0.74512802     0.08730
C1280       C  0.06365002  0.91827757  0.74350350    -0.13420
H1281       H  0.07259001  0.96633702  0.73397683     0.12720
H1282       H  0.15362796  0.90591251  0.72905166     0.12720
H1283       H  0.12053999  0.86216318  0.74272859     0.12720
H1284       H  0.03837344  0.92175001  0.74641428     0.12720
C1285       C  0.29075947  0.86675554  0.59677867    -0.13420
C1286       C  0.26648088  0.86623794  0.57330577     0.08730
C1287       C  0.23609113  0.87731115  0.57979761    -0.13420
C1288       C  0.23023606  0.88899595  0.60901743    -0.13420
C1289       C  0.25467544  0.89006193  0.63236341     0.08730
C1290       C  0.28490868  0.87839743  0.62598759    -0.13420
H1291       H  0.31449625  0.85844326  0.59260108     0.12720
H1292       H  0.21679753  0.87683147  0.56235568     0.12720
H1293       H  0.20669471  0.89791534  0.61313484     0.12720
H1294       H  0.30440178  0.87902419  0.64317002     0.12720
C1295       C  0.25952244  0.63631999  0.88450842    -0.13420
C1296       C  0.22921617  0.64704825  0.89173081     0.08730
C1297       C  0.20429152  0.64600802  0.86886778    -0.13420
C1298       C  0.20943413  0.63418876  0.83955473    -0.13420
C1299       C  0.23960870  0.62290833  0.83245454     0.08730
C1300       C  0.26467367  0.62447859  0.85518234    -0.13420
H1301       H  0.27928671  0.63720079  0.90145319     0.12720
H1302       H  0.18058414  0.65401180  0.87363168     0.12720
H1303       H  0.18946833  0.63307007  0.82288868     0.12720
H1304       H  0.28818711  0.61583425  0.85049434     0.12720
C1305       C  0.16274594  0.73164916  0.84286274    -0.13420
C1306       C  0.17467340  0.76150943  0.85030590     0.08730
C1307       C  0.16934997  0.78558772  0.82968800    -0.13420
C1308       C  0.15012483  0.78023859  0.80296982    -0.13420
C1309       C  0.13615820  0.75080742  0.79689144     0.08730
C1310       C  0.14357285  0.72637712  0.81648443    -0.13420
H1311       H  0.16695125  0.71254624  0.85825004     0.12720
H1312       H  0.17828347  0.80876550  0.83509416     0.12720
H1313       H  0.14477002  0.79950181  0.78812881     0.12720
H1314       H  0.13343702  0.70343605  0.81210259     0.12720
C1315       C  0.33339909  0.78075535  0.62320967    -0.13420
C1316       C  0.32168052  0.75099175  0.61512439     0.08730
C1317       C  0.32696388  0.72650959  0.63529203    -0.13420
C1318       C  0.34598708  0.73138630  0.66220583    -0.13420
C1319       C  0.35976394  0.76075457  0.66894175     0.08730
C1320       C  0.35233880  0.78557324  0.64981766    -0.13420
H1321       H  0.32920893  0.80013604  0.60816096     0.12720
H1322       H  0.31817374  0.70339360  0.62937957     0.12720
H1323       H  0.35136610  0.71184272  0.67667485     0.12720
H1324       H  0.36233463  0.80847844  0.65472532     0.12720
C1325       C  0.40986960  0.64453879  0.51775506    -0.13420
C1326       C  0.43442585  0.64103228  0.49740673     0.08730
C1327       C  0.43531428  0.66006457  0.97165734    -0.13420
C1328       C  0.40987029  0.67969450  0.96431547    -0.13420
C1329       C  0.38333453  0.68002850  0.98253980     0.08730
C1330       C  0.38426546  0.66383405  0.01022470    -0.13420
H1331       H  0.40846495  0.62962240  0.53735912     0.12720
H1332       H  0.45389774  0.65714569  0.95544371     0.12720
H1333       H  0.40963134  0.69238601  0.94313740     0.12720
H1334       H  0.36418445  0.66448355  0.52498556     0.12720
C1335       C  0.08821521  0.87085227  0.94778132    -0.13420
C1336       C  0.06229827  0.87208248  0.96680170     0.08730
C1337       C  0.06064272  0.85141636  0.99119581    -0.13420
C1338       C  0.08640308  0.83218730  0.99864217    -0.13420
C1339       C  0.11405549  0.83402255  0.98200354     0.08730
C1340       C  0.11412281  0.85204847  0.45548654    -0.13420
H1341       H  0.09018853  0.88707747  0.92928206     0.12720
H1342       H  0.04099358  0.85260965  0.00643370     0.12720
H1343       H  0.08584096  0.81801647  0.01882981     0.12720
H1344       H  0.13500400  0.85304528  0.44177038     0.12720
C1345       C  0.15496202  0.49892114  0.91354567    -0.13420
C1346       C  0.13285418  0.52321523  0.91162431     0.08730
C1347       C  0.13367606  0.54375181  0.88730813    -0.13420
C1348       C  0.15456484  0.53881346  0.86394220    -0.13420
C1349       C  0.17446556  0.01274968  0.86406681     0.08730
C1350       C  0.17576251  0.99367097  0.88974745    -0.13420
H1351       H  0.15417208  0.48249572  0.93196624     0.12720
H1352       H  0.11663172  0.56243295  0.88536098     0.12720
H1353       H  0.15363653  0.55436764  0.84473229     0.12720
H1354       H  0.19090707  0.97348869  0.89027443     0.12720
C1355       C  0.33579022  0.98510442  0.55728012    -0.13420
C1356       C  0.36320113  0.00405648  0.55636376     0.08730
C1357       C  0.36657684  0.02982537  0.57635628    -0.13420
C1358       C  0.34455168  0.53507421  0.59866017    -0.13420
C1359       C  0.31841810  0.51499469  0.60115025     0.08730
C1360       C  0.31340540  0.99055775  0.57970840    -0.13420
H1361       H  0.33290345  0.96499437  0.54223529     0.12720
H1362       H  0.38740132  0.04494812  0.57593097     0.12720
H1363       H  0.34904676  0.55369330  0.61528359     0.12720
H1364       H  0.29371232  0.97434691  0.58186052     0.12720
C1365       C  0.98845313  0.91183940  0.61596164    -0.13420
C1366       C  0.00959870  0.91390865  0.59227477     0.08730
C1367       C  0.02592844  0.88714200  0.58319723    -0.13420
C1368       C  0.02079876  0.85873426  0.59752244    -0.13420
C1369       C  0.99917361  0.85664652  0.62102009     0.08730
C1370       C  0.98334790  0.88369765  0.63016240    -0.13420
H1371       H  0.97592608  0.93207501  0.62375733     0.12720
H1372       H  0.04239807  0.88809420  0.56484227     0.12720
H1373       H  0.53359839  0.83845198  0.59021901     0.12720
H1374       H  0.96730616  0.88364512  0.64878864     0.12720
C1375       C  0.46196404  0.62092253  0.87234184    -0.13420
C1376       C  0.48766981  0.60043138  0.87661779     0.08730
C1377       C  0.51833106  0.61006137  0.86883975    -0.13420
C1378       C  0.52302796  0.63903726  0.85591802    -0.13420
C1379       C  0.49708647  0.65885897  0.84986636     0.08730
C1380       C  0.46657579  0.64982209  0.85891361    -0.13420
H1381       H  0.43813116  0.61423325  0.87860439     0.12720
H1382       H  0.03877326  0.59522133  0.87266775     0.12720
H1383       H  0.04694969  0.64547960  0.84981059     0.12720
H1384       H  0.44608203  0.66450390  0.85454389     0.12720
C1385       C  0.16319463  0.60632378  0.64757498    -0.13340
C1386       C  0.14558109  0.62120793  0.63068903    -0.14900
C1387       C  0.08177016  0.67260402  0.63656312    -0.13340
C1388       C  0.10130496  0.65691195  0.62399230    -0.14900
C1389       C  0.16155500  0.67518501  0.57542695    -0.13340
C1390       C  0.14523680  0.65857146  0.59052748    -0.14900
C1391       C  0.10789256  0.61569549  0.58720982    -0.13340
C1392       C  0.09242811  0.59782013  0.57053894    -0.14900
C1393       C  0.38794949  0.89788132  0.87678453    -0.13340
C1394       C  0.40358113  0.91544782  0.89368600    -0.14900
C1395       C  0.35046901  0.85521499  0.87404169    -0.13340
C1396       C  0.33468002  0.83844136  0.88945067    -0.14900
C1397       C  0.33164010  0.90705907  0.81675013    -0.13340
C1398       C  0.34964235  0.89233250  0.83350802    -0.14900
C1399       C  0.41319182  0.83969598  0.82835214    -0.13340
C1400       C  0.39387496  0.85617272  0.84030974    -0.14900
C1401       C  0.87047123  0.37552261  0.35594698    -0.02560
C1402       C  0.62500809  0.13806608  0.10823653    -0.02560
C1403       C  0.54556761  0.40133637  0.46931615     0.42390
N1404       N  0.53140203  0.44680846  0.45587254     0.01280
C1405       C  0.53685304  0.07512203  0.05370572    -0.06600
H1406       H  0.96971858  0.47331278  0.08652744     0.06770
C1407       C  0.89261278  0.49664651  0.50491200    -0.06950
Co1408     Co  0.55090199  0.49312308  0.50532822     0.74180
N1409       N  0.00289566  0.48811049  0.05320930    -0.26130
Co1410     Co  0.98365902  0.52753189  0.03246913     0.74070
C1411       C  0.89079934  0.49550441  0.03835611     0.42490
N1412       N  0.94144801  0.47576013  0.43837629     0.00890
N1413       N  0.93922499  0.50584105  0.02689812     0.01000
N1414       N  0.58098348  0.05222695  0.03609738    -0.46980
H1415       H  0.56808428  0.41909005  0.51503948     0.06760
N1416       N  0.52895788  0.47551195  0.04295512     0.01280
N1417       N  0.96449603  0.06584378  0.00960381     0.01020
C1418       C  0.95004942  0.11108693  0.99569230     0.42630
N1419       N  0.96752187  0.46342674  0.42764305    -0.25580
C1420       C  0.60245608  0.01881000  0.46280744    -0.06500
N1421       N  0.53224812  0.41764827  0.44586858    -0.46690
N1422       N  0.96371482  0.09514847  0.01925275    -0.46910
C1423       C  0.60431164  0.02284877  0.42982152     0.42400
N1424       N  0.55447820  0.03649498  0.02747231     0.01270
N1425       N  0.99327317  0.02479381  0.41295938    -0.25610
N1426       N  0.54522768  0.45051511  0.48347885    -0.26100
N1427       N  0.96666770  0.03680172  0.42267182     0.00910
H1428       H  0.02750039  0.04082003  0.38114490     0.06800
H1429       H  0.92706359  0.09275484  0.45040471     0.06840
N1430       N  0.52847035  0.04923842  0.03783115    -0.26150
N1431       N  0.92353723  0.50329199  0.50001943    -0.25760
N1432       N  0.55702570  0.00711858  0.43939165     0.01280
C1433       C  0.51383467  0.44371679  0.07668672     0.42670
C1434       C  0.95917883  0.43788804  0.41116240    -0.07010
N1435       N  0.95034831  0.06180248  0.48216326    -0.25760
H1436       H  0.87321405  0.49687558  0.48764836     0.06820
N1437       N  0.53612123  0.44893640  0.05613496    -0.46980
H1438       H  0.97521092  0.42376495  0.39833502     0.06810
C1439       C  0.98271678  0.06964153  0.39016236     0.42510
C1440       C  0.55475231  0.42312907  0.49370779    -0.06510
Co1441     Co  0.51246301  0.98524068  0.43327133     0.73820
N1442       N  0.91498719  0.46016093  0.42931600    -0.46700
C1443       C  0.57150478  0.07718179  0.05226347     0.42770
N1444       N  0.57547739  0.01467171  0.41692714    -0.46690
Co1445     Co  0.94475110  0.01911968  0.46058023     0.73890
C1446       C  0.94057026  0.08900295  0.97170345    -0.07020
C1447       C  0.99171191  0.46983535  0.07497579    -0.06580
N1448       N  0.57214574  0.00942486  0.46655038    -0.26110
N1449       N  0.92064195  0.50151837  0.04998265    -0.46870
H1450       H  0.02084257  0.08965862  0.06612001     0.06780
C1451       C  0.00510695  0.04379910  0.39213105    -0.06990
Cl1452     Cl  0.99791217  0.00622001  0.48291246    -0.49990
C1453       C  0.92451006  0.43564254  0.41253483     0.42540
H1454       H  0.62128263  0.02046213  0.48061776     0.06750
N1455       N  0.95962116  0.06353945  0.40971119    -0.46700
C1456       C  0.85359769  0.19482627  0.47180829     0.42390
N1457       N  0.82010829  0.23160059  0.47713829     0.01280
C1458       C  0.66698349  0.21350999  0.03132192    -0.06600
H1459       H  0.67922979  0.19068035  0.41327919     0.06770
C1460       C  0.70861791  0.29239403  0.39464628    -0.06950
Co1461     Co  0.76052690  0.20558223  0.50318696     0.74180
N1462       N  0.70974392  0.19891053  0.45361971    -0.26130
Co1463     Co  0.69298514  0.24003735  0.47161322     0.74070
C1464       C  0.68837714  0.26712967  0.38138623     0.42490
N1465       N  0.77930676  0.30767484  0.43914650     0.00890
N1466       N  0.69554007  0.26014691  0.42938703     0.01000
N1467       N  0.71127116  0.18979477  0.05079970    -0.46980
H1468       H  0.81616092  0.15815253  0.48315480     0.06760
N1469       N  0.73634604  0.18605686  0.46430784     0.01280
N1470       N  0.67687722  0.28202736  0.48809552     0.01020
C1471       C  0.64360349  0.31905523  0.99304011     0.42630
N1472       N  0.80501257  0.29419266  0.45119258    -0.25580
C1473       C  0.78805153  0.22068545  0.07039492    -0.06500
N1474       N  0.85048833  0.22587037  0.47218095    -0.46690
N1475       N  0.64649834  0.28797465  0.99285686    -0.46910
C1476       C  0.80814472  0.24587067  0.08392272     0.42400
N1477       N  0.71750682  0.20564889  0.02598955     0.01270
N1478       N  0.78702442  0.31458318  0.01164897    -0.25610
N1479       N  0.80337938  0.20601342  0.48120542    -0.26100
N1480       N  0.76054407  0.32744972  0.50068989     0.00910
H1481       H  0.81700772  0.32272593  0.05236146     0.06800
H1482       H  0.68142458  0.35544442  0.98195564     0.06840
N1483       N  0.69191560  0.21939869  0.01403999    -0.26150
N1484       N  0.71201306  0.28573266  0.42465207    -0.25760
N1485       N  0.80125039  0.25324812  0.03595074     0.01280
C1486       C  0.72397280  0.16136616  0.42210409     0.42670
C1487       C  0.82988079  0.30023716  0.43385413    -0.07010
N1488       N  0.69374869  0.30750915  0.48400008    -0.25760
H1489       H  0.71904287  0.31210385  0.38367096     0.06820
N1490       N  0.74621858  0.16388806  0.44570284    -0.46980
H1491       H  0.85449643  0.29403732  0.43915069     0.06810
C1492       C  0.77237122  0.35210209  0.04301288     0.42510
C1493       C  0.82219454  0.18169298  0.47730764    -0.06510
Co1494     Co  0.80391449  0.27350446  0.49369131     0.73820
N1495       N  0.78534477  0.32344946  0.41425929    -0.46700
C1496       C  0.68001036  0.19421499  0.05582740     0.42770
N1497       N  0.81553794  0.26464393  0.06115368    -0.46690
Co1498     Co  0.73641579  0.30779659  0.46190706     0.73890
C1499       C  0.67514749  0.33196833  0.98782535    -0.07020
C1500       C  0.69954154  0.18414815  0.42782075    -0.06580
N1501       N  0.78481694  0.22757588  0.04046262    -0.26110
N1502       N  0.68109184  0.24860722  0.40435287    -0.46870
H1503       H  0.64243065  0.21990618  0.02599993     0.06780
C1504       C  0.79689922  0.32930975  0.03757827    -0.06990
Cl1505     Cl  0.74847004  0.25672482  0.48259968    -0.49990
C1506       C  0.81661410  0.31930132  0.40923563     0.42540
H1507       H  0.77759173  0.20086688  0.08115993     0.06750
N1508       N  0.75044736  0.34959886  0.01916904    -0.46700
C1509       C  0.61142518  0.24592191  0.27226162     0.42390
N1510       N  0.56697312  0.23007925  0.25079574     0.01280
C1511       C  0.97021449  0.32389904  0.16038411    -0.06600
H1512       H  0.50437707  0.37392530  0.25448319     0.06770
C1513       C  0.93641915  0.28677200  0.31154417    -0.06950
Co1514     Co  0.54255753  0.27444359  0.20398132     0.74180
N1515       N  0.51473384  0.32814570  0.23705027    -0.26130
Co1516     Co  0.97112566  0.30507671  0.22660354     0.74070
C1517       C  0.93555008  0.32069492  0.31238119     0.42490
N1518       N  0.98499521  0.21696174  0.29447335     0.00890
N1519       N  0.95886430  0.30534354  0.27216748     0.01000
N1520       N  0.51863062  0.30829609  0.14621533    -0.46980
H1521       H  0.61242807  0.28924668  0.24236294     0.06760
N1522       N  0.54159115  0.31537074  0.22887093     0.01280
N1523       N  0.92870473  0.28097212  0.21554351     0.01020
C1524       C  0.88441571  0.26523403  0.19369641     0.42630
N1525       N  0.01233587  0.20590923  0.28532079    -0.25580
C1526       C  0.55825366  0.22487127  0.15422165    -0.06500
N1527       N  0.58890652  0.22322202  0.27234795    -0.46690
N1528       N  0.90687372  0.28798954  0.19397191    -0.46910
C1529       C  0.55946371  0.19102197  0.15318644     0.42400
N1530       N  0.51065322  0.29475559  0.17190894     0.01270
N1531       N  0.98124492  0.18294686  0.22932890    -0.25610
N1532       N  0.57362612  0.25604220  0.23689135    -0.26100
N1533       N  0.95417213  0.19518079  0.23766566     0.00910
H1534       H  0.99301535  0.13699866  0.21364462     0.06800
H1535       H  0.88340769  0.22150257  0.22309713     0.06840
N1536       N  0.98308123  0.30499702  0.18122124    -0.26150
N1537       N  0.95124975  0.27936854  0.28580661    -0.25760
N1538       N  0.53685718  0.20584705  0.19400328     0.01280
C1539       C  0.55659844  0.36030217  0.24588568     0.42670
C1540       C  0.52492255  0.18749764  0.30687232    -0.07010
N1541       N  0.92204763  0.25483038  0.22914319    -0.25760
H1542       H  0.92424072  0.27053253  0.32569503     0.06820
N1543       N  0.56675911  0.33365093  0.23368776    -0.46980
H1544       H  0.54485560  0.17228605  0.30349668     0.06810
C1545       C  0.94066095  0.14921174  0.22223768     0.42510
C1546       C  0.60135299  0.26772332  0.24879064    -0.06510
Co1547     Co  0.52459916  0.20594447  0.23977472     0.73820
N1548       N  0.97716462  0.20505579  0.32094832    -0.46700
C1549       C  0.49425024  0.32727506  0.13755661     0.42770
N1550       N  0.54632027  0.18102681  0.17885523    -0.46690
Co1551     Co  0.95296255  0.23661861  0.26224912     0.73890
C1552       C  0.89444194  0.24314462  0.21694857    -0.07020
C1553       C  0.52170510  0.35693166  0.24797083    -0.06580
N1554       N  0.54394430  0.23193698  0.18029280    -0.26110
N1555       N  0.94936690  0.33034280  0.28697009    -0.46870
H1556       H  0.94961281  0.33809841  0.16416386     0.06780
C1557       C  0.97513550  0.15381163  0.21923898    -0.06870
Cl1558     Cl  0.99780439  0.25550774  0.23315586    -0.49990
C1559       C  0.00140292  0.18635704  0.33045054     0.42540
H1560       H  0.56996746  0.24132231  0.13994415     0.06750
N1561       N  0.92968937  0.17574296  0.23416961    -0.46700
C1562       C  0.68958330  0.50381014  0.33547050     0.42390
N1563       N  0.72662361  0.50630592  0.30298215     0.01280
C1564       C  0.69909958  0.05855258  0.15398747    -0.06600
H1565       H  0.66106700  0.44378629  0.17829278     0.06770
C1566       C  0.77443925  0.41625263  0.18481857    -0.06950
Co1567     Co  0.69908800  0.03560679  0.24589258     0.74180
N1568       N  0.67970557  0.48497706  0.20165518    -0.26130
Co1569     Co  0.72207610  0.49616351  0.18104141     0.74070
C1570       C  0.74952882  0.40727373  0.16134773     0.42490
N1571       N  0.79489647  0.45536567  0.26104463     0.00890
N1572       N  0.73720812  0.45054003  0.18289499     0.01000
N1573       N  0.68376590  0.08382544  0.19638508    -0.46980
H1574       H  0.65137437  0.51901020  0.29969162     0.06760
N1575       N  0.67052666  0.50060757  0.22578312     0.01280
N1576       N  0.76553576  0.00678301  0.16174708     0.01020
C1577       C  0.80196596  0.01536412  0.13004175     0.42630
N1578       N  0.78581429  0.47041710  0.28567171    -0.25580
C1579       C  0.71915044  0.09682446  0.27997030    -0.06500
N1580       N  0.72159016  0.50138352  0.33233282    -0.46690
N1581       N  0.76992860  0.01490510  0.13306403    -0.46910
C1582       C  0.74420105  0.10549752  0.30346111     0.42400
N1583       N  0.69841456  0.05756356  0.20345637     0.01270
N1584       N  0.81325941  0.02746238  0.26364847    -0.25610
N1585       N  0.69990655  0.51332478  0.28739460    -0.26100
N1586       N  0.82203708  0.01279780  0.23878778     0.00910
H1587       H  0.83341763  0.06636281  0.28968367     0.06800
H1588       H  0.84175182  0.99969006  0.16408916     0.06840
N1589       N  0.70698186  0.04207496  0.17892755    -0.26150
N1590       N  0.76504055  0.44346703  0.19643425    -0.25760
N1591       N  0.75590165  0.06208359  0.28187884     0.01280
C1592       C  0.63541579  0.46433499  0.21928523     0.42670
C1593       C  0.79421947  0.45397593  0.31053315    -0.07010
N1594       N  0.79268849  0.00018182  0.17683411    -0.25760
H1595       H  0.79826337  0.40708589  0.18832710     0.06820
N1596       N  0.64444634  0.48876342  0.23731758    -0.46980
H1597       H  0.79259729  0.46187137  0.33400928     0.06810
C1598       C  0.85825528  0.04765237  0.24727903     0.42510
C1599       C  0.67538331  0.51127705  0.30555439    -0.06510
Co1600     Co  0.77060242  0.01635901  0.28381585     0.73820
N1601       N  0.81029343  0.42945496  0.26802584    -0.46700
C1602       C  0.68401247  0.08631681  0.16559091     0.42770
N1603       N  0.76601301  0.08282287  0.30277212    -0.46690
Co1604     Co  0.79392497  0.47760207  0.21851366     0.73890
C1605       C  0.81700007  0.00542659  0.15882744    -0.07020
C1606       C  0.65899223  0.46153465  0.19580172    -0.06580
N1607       N  0.72823300  0.06952395  0.26821510    -0.26110
N1608       N  0.72737527  0.42966869  0.16200797    -0.46870
H1609       H  0.70078911  0.05058825  0.13054084     0.06780
C1610       C  0.83485837  0.04981022  0.27098801    -0.06990
Cl1611     Cl  0.74642625  0.50640195  0.23233243    -0.49990
C1612       C  0.81017086  0.42669917  0.29881925     0.42540
H1613       H  0.69546401  0.10632101  0.27648852     0.06750
N1614       N  0.84857251  0.02441735  0.22795876    -0.46700
C1615       C  0.91584402  0.11464781  0.25875409    -0.13420
C1616       C  0.92481296  0.11980364  0.22873818     0.08730
C1617       C  0.91469379  0.09906576  0.20520027    -0.13420
C1618       C  0.89416955  0.07432138  0.21146459    -0.13420
C1619       C  0.88353344  0.07042330  0.24125172     0.08730
C1620       C  0.89535542  0.09018977  0.26496550    -0.13420
H1621       H  0.92362678  0.13043783  0.27722111     0.12720
H1622       H  0.92123922  0.10294828  0.18188435     0.12720
H1623       H  0.88530912  0.05929113  0.19279271     0.12720
H1624       H  0.88795208  0.08739030  0.28816066     0.12720
C1625       C  0.58303052  0.44358478  0.23611420    -0.13420
C1626       C  0.61525500  0.43901292  0.22970306     0.08730
C1627       C  0.62859525  0.40967864  0.23311738    -0.13420
C1628       C  0.60965739  0.38477762  0.24117409    -0.13420
C1629       C  0.57673416  0.38848618  0.24512815     0.08730
C1630       C  0.56365037  0.41827746  0.24350390    -0.13420
H1631       H  0.57259026  0.46633693  0.23397728     0.12720
H1632       H  0.65362799  0.40591233  0.22905063     0.12720
H1633       H  0.62054023  0.36216301  0.24272794     0.12720
H1634       H  0.53837387  0.42174992  0.24641510     0.12720
C1635       C  0.79076017  0.36675630  0.09677832    -0.13420
C1636       C  0.76648170  0.36623876  0.07330531     0.08730
C1637       C  0.73609187  0.37731181  0.07979706    -0.13420
C1638       C  0.73023658  0.38899636  0.10901691    -0.13420
C1639       C  0.75467582  0.39006226  0.13236302     0.08730
C1640       C  0.78490916  0.37839794  0.12598728    -0.13420
H1641       H  0.81449702  0.35844414  0.09260079     0.12720
H1642       H  0.71679836  0.37683218  0.06235504     0.12720
H1643       H  0.70669516  0.39791563  0.11313426     0.12720
H1644       H  0.80440216  0.37902465  0.14316981     0.12720
C1645       C  0.75952220  0.13631983  0.38450810    -0.13420
C1646       C  0.72921581  0.14704765  0.39173063     0.08730
C1647       C  0.70429111  0.14600724  0.36886768    -0.13420
C1648       C  0.70943377  0.13418820  0.33955456    -0.13420
C1649       C  0.73960847  0.12290819  0.33245423     0.08730
C1650       C  0.76467349  0.12447866  0.35518196    -0.13420
H1651       H  0.77928653  0.13720079  0.40145282     0.12720
H1652       H  0.68058363  0.15401070  0.37363169     0.12720
H1653       H  0.68946792  0.13306932  0.32288857     0.12720
H1654       H  0.78818703  0.11583463  0.35049385     0.12720
C1655       C  0.66274552  0.23164833  0.34286281    -0.13420
C1656       C  0.67467304  0.26150858  0.35030603     0.08730
C1657       C  0.66934978  0.28558688  0.32968810    -0.13420
C1658       C  0.65012475  0.28023780  0.30296985    -0.13420
C1659       C  0.63615803  0.25080667  0.29689142     0.08730
C1660       C  0.64357252  0.22637635  0.31648443    -0.13420
H1661       H  0.66695070  0.21254540  0.35825013     0.12720
H1662       H  0.67828333  0.30876463  0.33509430     0.12720
H1663       H  0.64477008  0.29950104  0.28812883     0.12720
H1664       H  0.63343663  0.20343531  0.31210255     0.12720
C1665       C  0.83339959  0.28075638  0.12320959    -0.13420
C1666       C  0.82168075  0.25099286  0.11512439     0.08730
C1667       C  0.82696366  0.22651075  0.13529217    -0.13420
C1668       C  0.84598672  0.23138739  0.16220606    -0.13420
C1669       C  0.85976389  0.26075554  0.16894192     0.08730
C1670       C  0.85233916  0.28557421  0.14981769    -0.13420
H1671       H  0.82920977  0.30013703  0.10816076     0.12720
H1672       H  0.81817329  0.20339482  0.12937978     0.12720
H1673       H  0.85136541  0.21184383  0.17667520     0.12720
H1674       H  0.86233523  0.30847932  0.15472530     0.12720
C1675       C  0.90986991  0.14453901  0.01775552    -0.13420
C1676       C  0.93442645  0.14103285  0.99740746     0.08730
C1677       C  0.93531370  0.16006383  0.47165679    -0.13420
C1678       C  0.90986968  0.17969376  0.46431498    -0.13420
C1679       C  0.88333404  0.18002785  0.48253946     0.08730
C1680       C  0.88426512  0.16383349  0.51022441    -0.13420
H1681       H  0.90846507  0.12962241  0.03735941     0.12720
H1682       H  0.95389706  0.15714489  0.45544307     0.12720
H1683       H  0.90963062  0.19238520  0.44313686     0.12720
H1684       H  0.86418453  0.16448344  0.02498568     0.12720
C1685       C  0.58821458  0.37085127  0.44778162    -0.13420
C1686       C  0.56229773  0.37208173  0.46680210     0.08730
C1687       C  0.56064215  0.35141573  0.49119630    -0.13420
C1688       C  0.58640238  0.33218650  0.49864263    -0.13420
C1689       C  0.61405473  0.33402147  0.48200387     0.08730
C1690       C  0.61412390  0.35204996  0.95548659    -0.13420
H1691       H  0.59018795  0.38707638  0.42928229     0.12720
H1692       H  0.54099308  0.35260921  0.50643425     0.12720
H1693       H  0.58584025  0.31801576  0.51883033     0.12720
H1694       H  0.63500515  0.35304705  0.94177055     0.12720
C1695       C  0.65496163  0.99892087  0.41354520    -0.13420
C1696       C  0.63285344  0.02321466  0.41162374     0.08730
C1697       C  0.63367501  0.04375115  0.38730746    -0.13420
C1698       C  0.65456385  0.03881300  0.36394156    -0.13420
C1699       C  0.67446476  0.51274954  0.36406629     0.08730
C1700       C  0.67576209  0.49367105  0.38974708    -0.13420
H1701       H  0.65417195  0.98249553  0.43196585     0.12720
H1702       H  0.61663041  0.06243206  0.38536025     0.12720
H1703       H  0.65363532  0.05436712  0.34473160     0.12720
H1704       H  0.69090703  0.47348903  0.39027421     0.12720
C1705       C  0.83579080  0.48510457  0.05728023    -0.13420
C1706       C  0.86320163  0.50405675  0.05636393     0.08730
C1707       C  0.86657721  0.52982562  0.07635650    -0.13420
C1708       C  0.84455204  0.03507419  0.09866024    -0.13420
C1709       C  0.81841847  0.01499462  0.10115018     0.08730
C1710       C  0.81340592  0.49055777  0.07970849    -0.13420
H1711       H  0.83290414  0.46499453  0.04223538     0.12720
H1712       H  0.88740162  0.54494846  0.07593123     0.12720
H1713       H  0.84904706  0.05369322  0.11528374     0.12720
H1714       H  0.79371290  0.47434686  0.08186056     0.12720
C1715       C  0.48845326  0.41184001  0.11596181    -0.13420
C1716       C  0.50959906  0.41390925  0.09227512     0.08730
C1717       C  0.52592896  0.38714262  0.08319781    -0.13420
C1718       C  0.52079924  0.35873491  0.09752308    -0.13420
C1719       C  0.49917387  0.35664718  0.12102055     0.08730
C1720       C  0.48334796  0.38369829  0.13016261    -0.13420
H1721       H  0.47592605  0.43207560  0.12375732     0.12720
H1722       H  0.54239877  0.38809481  0.06484300     0.12720
H1723       H  0.03359913  0.33845275  0.09021996     0.12720
H1724       H  0.46730602  0.38364576  0.14878868     0.12720
C1725       C  0.96196353  0.12092165  0.37234136    -0.13420
C1726       C  0.98766922  0.10043037  0.37661716     0.08730
C1727       C  0.01833044  0.11006021  0.36883889    -0.13420
C1728       C  0.02302740  0.13903607  0.35591713    -0.13420
C1729       C  0.99708599  0.15885793  0.34986567     0.08730
C1730       C  0.96657534  0.14982120  0.35891310    -0.13420
H1731       H  0.93813068  0.11423249  0.37860408     0.12720
H1732       H  0.53877259  0.09522010  0.37266679     0.12720
H1733       H  0.54694912  0.14547833  0.34980960     0.12720
H1734       H  0.94608163  0.16450312  0.35454354     0.12720
C1735       C  0.66319518  0.10632421  0.14757466    -0.13340
C1736       C  0.64558173  0.12120858  0.13068881    -0.14900
C1737       C  0.58177057  0.17260454  0.13656301    -0.13340
C1738       C  0.60130551  0.15691259  0.12399224    -0.14900
C1739       C  0.66155547  0.17518592  0.07542680    -0.13340
C1740       C  0.64523732  0.15857229  0.09052734    -0.14900
C1741       C  0.60789316  0.11569624  0.08720969    -0.13340
C1742       C  0.59242868  0.09782078  0.07053894    -0.14900
C1743       C  0.88794863  0.39788055  0.37678464    -0.13340
C1744       C  0.90358032  0.41544696  0.39368615    -0.14900
C1745       C  0.85046808  0.35521428  0.37404172    -0.13340
C1746       C  0.83467912  0.33844070  0.38945079    -0.14900
C1747       C  0.83163942  0.40705863  0.31675017    -0.13340
C1748       C  0.84964155  0.39233191  0.33350806    -0.14900
C1749       C  0.91319116  0.33969540  0.32835230    -0.13340
C1750       C  0.89387413  0.35617204  0.34030980    -0.14900
C1751       C  0.87047222  0.37552335  0.85594720    -0.02560
C1752       C  0.62500752  0.13806555  0.60823667    -0.02560
C1753       C  0.54556846  0.40133730  0.96931658     0.42390
N1754       N  0.53140281  0.44680938  0.95587301     0.01280
C1755       C  0.53685249  0.07512185  0.55370539    -0.06600
H1756       H  0.96971821  0.47331182  0.58652710     0.06770
C1757       C  0.89261344  0.49664719  0.00491210    -0.06950
Co1758     Co  0.55090258  0.49312398  0.00532874     0.74180
N1759       N  0.00289518  0.48810958  0.55320888    -0.26130
Co1760     Co  0.98365849  0.52753099  0.53246879     0.74070
C1761       C  0.89079878  0.49550376  0.53835602     0.42490
N1762       N  0.94144883  0.47576098  0.93837654     0.00890
N1763       N  0.93922444  0.50584017  0.52689789     0.01000
N1764       N  0.58098295  0.05222672  0.53609717    -0.46980
H1765       H  0.56808490  0.41909095  0.01504002     0.06760
N1766       N  0.52895740  0.47551104  0.54295463     0.01280
N1767       N  0.96449544  0.06584349  0.50960331     0.01020
C1768       C  0.95004871  0.11108652  0.49569150     0.42630
N1769       N  0.96752272  0.46342762  0.92764336    -0.25580
C1770       C  0.60245667  0.01881042  0.96280772    -0.06500
N1771       N  0.53224902  0.41764922  0.94586900    -0.46690
N1772       N  0.96371415  0.09514824  0.51925206    -0.46910
C1773       C  0.60431230  0.02284939  0.92982183     0.42400
N1774       N  0.55447767  0.03649480  0.52747200     0.01270
N1775       N  0.99327375  0.02479483  0.91295966    -0.25610
N1776       N  0.54522834  0.45051601  0.98347937    -0.26100
N1777       N  0.96666824  0.03680262  0.92267215     0.00910
H1778       H  0.02750102  0.04082136  0.88114537     0.06800
H1779       H  0.92706423  0.09275560  0.95040542     0.06840
N1780       N  0.52846981  0.04923826  0.53783080    -0.26150
N1781       N  0.92353787  0.50329281  0.00001962    -0.25760
N1782       N  0.55702626  0.00711934  0.93939183     0.01280
C1783       C  0.51383431  0.44371586  0.57668623     0.42670
C1784       C  0.95917975  0.43788891  0.91116268    -0.07010
N1785       N  0.95034888  0.06180297  0.98216374    -0.25760
H1786       H  0.87321476  0.49687615  0.98764841     0.06820
N1787       N  0.53612081  0.44893549  0.55613443    -0.46980
H1788       H  0.97521189  0.42376583  0.89833536     0.06810
C1789       C  0.98271735  0.06964271  0.89016298     0.42510
C1790       C  0.55475298  0.42312997  0.99370830    -0.06510
Co1791     Co  0.51246355  0.98524152  0.93327134     0.73820
N1792       N  0.91498804  0.46016175  0.92931619    -0.46700
C1793       C  0.57150425  0.07718157  0.55226324     0.42770
N1794       N  0.57547802  0.01467253  0.91692738    -0.46690
Co1795     Co  0.94475162  0.01912032  0.96058042     0.73890
C1796       C  0.94056963  0.08900237  0.47170278    -0.07020
C1797       C  0.99171150  0.46983442  0.57497539    -0.06580
N1798       N  0.57214629  0.00942539  0.96655058    -0.26110
N1799       N  0.92064145  0.50151759  0.54998247    -0.46870
H1800       H  0.02084199  0.08965848  0.56611970     0.06780
C1801       C  0.00510756  0.04380031  0.89213151    -0.06990
Cl1802     Cl  0.99791270  0.00622048  0.98291256    -0.49990
C1803       C  0.92451097  0.43564337  0.91253504     0.42540
H1804       H  0.62128322  0.02046231  0.98061806     0.06750
N1805       N  0.95962169  0.06354045  0.90971171    -0.46700
C1806       C  0.85359838  0.19482639  0.97180872     0.42390
N1807       N  0.82010906  0.23160085  0.97713831     0.01280
C1808       C  0.66698286  0.21350921  0.53132199    -0.06600
H1809       H  0.67923039  0.19068100  0.91327922     0.06770
C1810       C  0.70861880  0.29239453  0.89464608    -0.06950
Co1811     Co  0.76052753  0.20558280  0.00318698     0.74180
N1812       N  0.70974454  0.19891115  0.95361972    -0.26130
Co1813     Co  0.69298593  0.24003808  0.97161316     0.74070
C1814       C  0.68837786  0.26713026  0.88138611     0.42490
N1815       N  0.77930783  0.30767509  0.93914622     0.00890
N1816       N  0.69554092  0.26014752  0.92938691     0.01000
N1817       N  0.71127061  0.18979408  0.55079974    -0.46980
H1818       H  0.81616140  0.15815285  0.98315523     0.06760
N1819       N  0.73634662  0.18605740  0.96430788     0.01280
N1820       N  0.67687824  0.28202823  0.98809538     0.01020
C1821       C  0.64360219  0.31905415  0.49304016     0.42630
N1822       N  0.80501360  0.29419289  0.95119237    -0.25580
C1823       C  0.78805107  0.22068468  0.57039491    -0.06500
N1824       N  0.85048912  0.22587050  0.97218116    -0.46690
N1825       N  0.64649725  0.28797360  0.49285689    -0.46910
C1826       C  0.80814423  0.24586992  0.58392275     0.42400
N1827       N  0.71750619  0.20564816  0.52598955     0.01270
N1828       N  0.78702333  0.31458267  0.51164927    -0.25610
N1829       N  0.80338003  0.20601376  0.98120549    -0.26100
N1830       N  0.76054525  0.32745029  0.00068948     0.00910
H1831       H  0.81700670  0.32272537  0.55236172     0.06800
H1832       H  0.68142309  0.35544357  0.48195579     0.06840
N1833       N  0.69191492  0.21939791  0.51404001    -0.26150
N1834       N  0.71201402  0.28573318  0.92465187    -0.25760
N1835       N  0.80124961  0.25324759  0.53595082     0.01280
C1836       C  0.72397328  0.16136665  0.92210419     0.42670
C1837       C  0.82988187  0.30023739  0.93385399    -0.07010
N1838       N  0.69374984  0.30750992  0.98399986    -0.25760
H1839       H  0.71904378  0.31210431  0.88367072     0.06820
N1840       N  0.74621906  0.16388852  0.94570293    -0.46980
H1841       H  0.85449751  0.29403760  0.93915065     0.06810
C1842       C  0.77237007  0.35210140  0.54301336     0.42510
C1843       C  0.82219513  0.18169324  0.97730795    -0.06510
Co1844     Co  0.80391541  0.27350484  0.99369117     0.73820
N1845       N  0.78534592  0.32344973  0.91425905    -0.46700
C1846       C  0.68000981  0.19421429  0.55582748     0.42770
N1847       N  0.81553724  0.26464332  0.56115375    -0.46690
Co1848     Co  0.73641688  0.30779710  0.96190678     0.73890
C1849       C  0.67514614  0.33196745  0.48782551    -0.07020
C1850       C  0.69954211  0.18414875  0.92782079    -0.06580
N1851       N  0.78481630  0.22757527  0.54046265    -0.26110
N1852       N  0.68109256  0.24860787  0.90435280    -0.46870
H1853       H  0.64243002  0.21990541  0.52600005     0.06780
C1854       C  0.79689814  0.32930917  0.53757861    -0.06990
Cl1855     Cl  0.74847090  0.25672536  0.98259956    -0.49990
C1856       C  0.81661525  0.31930157  0.90923547     0.42540
H1857       H  0.77759144  0.20086600  0.58115987     0.06750
N1858       N  0.75044615  0.34959819  0.51916955    -0.46700
C1859       C  0.61142523  0.24592252  0.77226190     0.42390
N1860       N  0.56697324  0.23007963  0.75079607     0.01280
C1861       C  0.97021424  0.32389822  0.66038350    -0.06600
H1862       H  0.50437664  0.37392534  0.75448272     0.06770
C1863       C  0.93641939  0.28677252  0.81154410    -0.06950
Co1864     Co  0.54255755  0.27444354  0.70398130     0.74180
N1865       N  0.51473358  0.32814578  0.73704980    -0.26130
Co1866     Co  0.97112548  0.30507660  0.72660315     0.74070
C1867       C  0.93555044  0.32069545  0.81238093     0.42490
N1868       N  0.98499531  0.21696234  0.79447369     0.00890
N1869       N  0.95886415  0.30534377  0.77216706     0.01000
N1870       N  0.51863054  0.30829540  0.64621499    -0.46980
H1871       H  0.61242804  0.28924711  0.74236297     0.06760
N1872       N  0.54159097  0.31537087  0.72887059     0.01280
N1873       N  0.92870464  0.28097180  0.71554325     0.01020
C1874       C  0.88441576  0.26523337  0.69369614     0.42630
N1875       N  0.01233602  0.20590983  0.78532126    -0.25580
C1876       C  0.55825356  0.22487092  0.65422186    -0.06500
N1877       N  0.58890664  0.22322258  0.77234834    -0.46690
N1878       N  0.90687366  0.28798897  0.69397154    -0.46910
C1879       C  0.55946355  0.19102163  0.65318683     0.42400
N1880       N  0.51065318  0.29475514  0.67190873     0.01270
N1881       N  0.98124519  0.18294688  0.72932949    -0.25610
N1882       N  0.57362617  0.25604250  0.73689153    -0.26100
N1883       N  0.95417235  0.19518076  0.73766615     0.00910
H1884       H  0.99301580  0.13699869  0.71364528     0.06800
H1885       H  0.88340784  0.22150213  0.72309717     0.06840
N1886       N  0.98308108  0.30499652  0.68122087    -0.26150
N1887       N  0.95124969  0.27936887  0.78580642    -0.25760
N1888       N  0.53685738  0.20584694  0.69400377     0.01280
C1889       C  0.55659808  0.36030231  0.74588538     0.42670
C1890       C  0.52492284  0.18749856  0.80687303    -0.07010
N1891       N  0.92204762  0.25483014  0.72914313    -0.25760
H1892       H  0.92424118  0.27053317  0.82569526     0.06820
N1893       N  0.56675888  0.33365110  0.73368751    -0.46980
H1894       H  0.54485599  0.17228703  0.80349760     0.06810
C1895       C  0.94066134  0.14921166  0.72223821     0.42510
C1896       C  0.60135300  0.26772378  0.74879080    -0.06510
Co1897     Co  0.52459937  0.20594466  0.73977520     0.73820
N1898       N  0.97716480  0.20505671  0.82094882    -0.46700
C1899       C  0.49425005  0.32727414  0.63755603     0.42770
N1900       N  0.54632033  0.18102661  0.67885577    -0.46690
Co1901     Co  0.95296259  0.23661877  0.76224927     0.73890
C1902       C  0.89444202  0.24314418  0.71694849    -0.07020
C1903       C  0.52170473  0.35693176  0.74797035    -0.06580
N1904       N  0.54394443  0.23193678  0.68029309    -0.26110
N1905       N  0.94936700  0.33034315  0.78696963    -0.46870
H1906       H  0.94961245  0.33809752  0.66416305     0.06780
C1907       C  0.97513589  0.15381162  0.71923962    -0.06870
Cl1908     Cl  0.99780439  0.25550780  0.73315591    -0.49990
C1909       C  0.00140321  0.18635821  0.83045129     0.42540
H1910       H  0.56996717  0.24132188  0.63994414     0.06750
N1911       N  0.92968965  0.17574287  0.73417008    -0.46700
C1912       C  0.68958390  0.50381036  0.83547118     0.42390
N1913       N  0.72662403  0.50630610  0.80298264     0.01280
C1914       C  0.69909931  0.05855254  0.65398769    -0.06600
H1915       H  0.66106695  0.44378631  0.67829338     0.06770
C1916       C  0.77443933  0.41625264  0.68481891    -0.06950
Co1917     Co  0.69908802  0.03560677  0.74589281     0.74180
N1918       N  0.67970567  0.48497701  0.70165582    -0.26130
Co1919     Co  0.72207610  0.49616345  0.68104191     0.74070
C1920       C  0.74952876  0.40727368  0.66134822     0.42490
N1921       N  0.79489678  0.45536587  0.76104496     0.00890
N1922       N  0.73720817  0.45054000  0.68289550     0.01000
N1923       N  0.68376567  0.08382538  0.69638532    -0.46980
H1924       H  0.65137479  0.51901034  0.79969245     0.06760
N1925       N  0.67052681  0.50060753  0.72578378     0.01280
N1926       N  0.76553553  0.00678313  0.66174708     0.01020
C1927       C  0.80196560  0.01536443  0.63004166     0.42630
N1928       N  0.78581466  0.47041734  0.78567204    -0.25580
C1929       C  0.71915048  0.09682442  0.77997057    -0.06500
N1930       N  0.72159074  0.50138377  0.83233336    -0.46690
N1931       N  0.76992825  0.01490530  0.63306403    -0.46910
C1932       C  0.74420114  0.10549749  0.80346132     0.42400
N1933       N  0.69841443  0.05756355  0.70345660     0.01270
N1934       N  0.81325946  0.02746247  0.76364837    -0.25610
N1935       N  0.69990690  0.51332489  0.78739520    -0.26100
N1936       N  0.82203708  0.01279794  0.73878762     0.00910
H1937       H  0.83341780  0.06636276  0.78968370     0.06800
H1938       H  0.84175160  0.99969040  0.66408893     0.06840
N1939       N  0.70698170  0.04207496  0.67892776    -0.26150
N1940       N  0.76504068  0.44346705  0.69643464    -0.25760
N1941       N  0.75590173  0.06208360  0.78187895     0.01280
C1942       C  0.63541585  0.46433505  0.71928588     0.42670
C1943       C  0.79421998  0.45397626  0.81053349    -0.07010
N1944       N  0.79268832  0.00018199  0.67683402    -0.25760
H1945       H  0.79826347  0.40708590  0.68832733     0.06820
N1946       N  0.64444648  0.48876344  0.73731826    -0.46980
H1947       H  0.79259789  0.46187177  0.83400961     0.06810
C1948       C  0.85825535  0.04765243  0.74727896     0.42510
C1949       C  0.67538376  0.51127720  0.80555512    -0.06510
Co1950     Co  0.77060256  0.01635903  0.78381584     0.73820
N1951       N  0.81029384  0.42945523  0.76802618    -0.46700
C1952       C  0.68401216  0.08631672  0.66559113     0.42770
N1953       N  0.76601313  0.08282285  0.80277225    -0.46690
Co1954     Co  0.79392512  0.47760218  0.71851394     0.73890
C1955       C  0.81699982  0.00542687  0.65882728    -0.07020
C1956       C  0.65899226  0.46153465  0.69580236    -0.06580
N1957       N  0.72823303  0.06952395  0.76821529    -0.26110
N1958       N  0.72737520  0.42966862  0.66200856    -0.46870
H1959       H  0.70078878  0.05058818  0.63054105     0.06780
C1960       C  0.83485847  0.04981025  0.77098796    -0.06990
Cl1961     Cl  0.74642641  0.50640202  0.73233284    -0.49990
C1962       C  0.81017140  0.42669952  0.79881961     0.42540
H1963       H  0.69546402  0.10632095  0.77648887     0.06750
N1964       N  0.84857253  0.02441747  0.72795863    -0.46700
C1965       C  0.91584444  0.11464752  0.75875443    -0.13420
C1966       C  0.92481334  0.11980354  0.72873855     0.08730
C1967       C  0.91469404  0.09906587  0.70520050    -0.13420
C1968       C  0.89416970  0.07432152  0.71146467    -0.13420
C1969       C  0.88353363  0.07042327  0.74125178     0.08730
C1970       C  0.89535574  0.09018951  0.76496570    -0.13420
H1971       H  0.92362729  0.13043739  0.77722155     0.12720
H1972       H  0.92123943  0.10294855  0.68188459     0.12720
H1973       H  0.88530917  0.05929144  0.69279269     0.12720
H1974       H  0.88795242  0.08738990  0.78816084     0.12720
C1975       C  0.58303032  0.44358491  0.73611425    -0.13420
C1976       C  0.61525493  0.43901305  0.72970363     0.08730
C1977       C  0.62859515  0.40967879  0.73311822    -0.13420
C1978       C  0.60965715  0.38477777  0.74117467    -0.13420
C1979       C  0.57673383  0.38848632  0.74512818     0.08730
C1980       C  0.56365004  0.41827759  0.74350370    -0.13420
H1981       H  0.57259007  0.46633705  0.73397710     0.12720
H1982       H  0.65362798  0.40591249  0.72905184     0.12720
H1983       H  0.62053997  0.36216317  0.74272871     0.12720
H1984       H  0.53837346  0.42175004  0.74641448     0.12720
C1985       C  0.79075947  0.36675588  0.59677862    -0.13420
C1986       C  0.76648078  0.36623818  0.57330581     0.08730
C1987       C  0.73609102  0.37731125  0.57979777    -0.13420
C1988       C  0.73023601  0.38899598  0.60901763    -0.13420
C1989       C  0.75467548  0.39006204  0.63236354     0.08730
C1990       C  0.78490875  0.37839770  0.62598758    -0.13420
H1991       H  0.81449628  0.35844371  0.59260093     0.12720
H1992       H  0.71679735  0.37683150  0.56235591     0.12720
H1993       H  0.70669464  0.39791525  0.61313515     0.12720
H1994       H  0.80440191  0.37902454  0.64316994     0.12720
C1995       C  0.75952247  0.13631983  0.88450831    -0.13420
C1996       C  0.72921618  0.14704797  0.89173078     0.08730
C1997       C  0.70429150  0.14600771  0.86886780    -0.13420
C1998       C  0.70943408  0.13418852  0.83955472    -0.13420
C1999       C  0.73960867  0.12290820  0.83245445     0.08730
C2000       C  0.76467368  0.12447850  0.85518221    -0.13420
H2001       H  0.77928678  0.13720066  0.90145305     0.12720
H2002       H  0.68058409  0.15401141  0.87363175     0.12720
H2003       H  0.68946825  0.13306978  0.82288871     0.12720
H2004       H  0.78818714  0.11583424  0.85049415     0.12720
C2005       C  0.66274605  0.23164896  0.84286279    -0.13420
C2006       C  0.67467358  0.26150921  0.85030597     0.08730
C2007       C  0.66935012  0.28558754  0.82968811    -0.13420
C2008       C  0.65012490  0.28023847  0.80296997    -0.13420
C2009       C  0.63615820  0.25080733  0.79689159     0.08730
C2010       C  0.64357287  0.22637699  0.81648453    -0.13420
H2011       H  0.66695137  0.21254602  0.85825006     0.12720
H2012       H  0.67828368  0.30876530  0.83509429     0.12720
H2013       H  0.64477008  0.29950172  0.78812900     0.12720
H2014       H  0.63343699  0.20343595  0.81210268     0.12720
C2015       C  0.83339907  0.28075559  0.62320965    -0.13420
C2016       C  0.82168045  0.25099202  0.61512437     0.08730
C2017       C  0.82696376  0.22650983  0.63529199    -0.13420
C2018       C  0.84598697  0.23138650  0.66220580    -0.13420
C2019       C  0.85976389  0.26075475  0.66894172     0.08730
C2020       C  0.85233880  0.28557344  0.64981764    -0.13420
H2021       H  0.82920895  0.30013630  0.60816095     0.12720
H2022       H  0.81817357  0.20339386  0.62937953     0.12720
H2023       H  0.85136595  0.21184291  0.67667481     0.12720
H2024       H  0.86233467  0.30847861  0.65472531     0.12720
C2025       C  0.90986963  0.14453910  0.51775485    -0.13420
C2026       C  0.93442576  0.14103248  0.49740641     0.08730
C2027       C  0.93531472  0.16006456  0.97165813    -0.13420
C2028       C  0.90987065  0.17969437  0.96431614    -0.13420
C2029       C  0.88333464  0.18002797  0.98254015     0.08730
C2030       C  0.88426535  0.16383327  0.01022490    -0.13420
H2031       H  0.90846504  0.12962278  0.53735896     0.12720
H2032       H  0.95389841  0.15714596  0.95544469     0.12720
H2033       H  0.90963189  0.19238610  0.94313821     0.12720
H2034       H  0.86418457  0.16448401  0.52498551     0.12720
C2035       C  0.58821593  0.37085286  0.94778211    -0.13420
C2036       C  0.56229892  0.37208286  0.96680241     0.08730
C2037       C  0.56064332  0.35141657  0.99119636    -0.13420
C2038       C  0.58640363  0.33218739  0.99864257    -0.13420
C2039       C  0.61405607  0.33402273  0.98200399     0.08730
C2040       C  0.61412248  0.35204830  0.45548621    -0.13420
H2041       H  0.59018930  0.38707822  0.92928299     0.12720
H2042       H  0.54099414  0.35260972  0.00643420     0.12720
H2043       H  0.58584144  0.31801635  0.01883006     0.12720
H2044       H  0.63500367  0.35304509  0.44177005     0.12720
C2045       C  0.65496188  0.99892080  0.91354538    -0.13420
C2046       C  0.63285415  0.02321498  0.91162410     0.08730
C2047       C  0.63367614  0.04375166  0.88730800    -0.13420
C2048       C  0.65456493  0.03881332  0.86394208    -0.13420
C2049       C  0.67446556  0.51274992  0.86406703     0.08730
C2050       C  0.67576264  0.49367133  0.88974775    -0.13420
H2051       H  0.65417185  0.98249532  0.93196588     0.12720
H2052       H  0.61663188  0.06243287  0.88536091     0.12720
H2053       H  0.65363671  0.05436757  0.84473222     0.12720
H2054       H  0.69090730  0.47348912  0.89027480     0.12720
C2055       C  0.83579018  0.48510433  0.55728025    -0.13420
C2056       C  0.86320117  0.50405629  0.55636394     0.08730
C2057       C  0.86657701  0.52982510  0.57635655    -0.13420
C2058       C  0.84455143  0.03507450  0.59865986    -0.13420
C2059       C  0.81841797  0.01499485  0.60115002     0.08730
C2060       C  0.81340539  0.49055768  0.57970856    -0.13420
H2061       H  0.83290330  0.46499434  0.54223535     0.12720
H2062       H  0.88740154  0.54494777  0.57593128     0.12720
H2063       H  0.84904641  0.05369367  0.61528321     0.12720
H2064       H  0.79371223  0.47434692  0.58186063     0.12720
C2065       C  0.48845338  0.41183918  0.61596164    -0.13420
C2066       C  0.50959876  0.41390832  0.59227460     0.08730
C2067       C  0.52592832  0.38714161  0.58319695    -0.13420
C2068       C  0.52079863  0.35873390  0.59752221    -0.13420
C2069       C  0.49917366  0.35664627  0.62102001     0.08730
C2070       C  0.48334815  0.38369746  0.63016245    -0.13420
H2071       H  0.47592648  0.43207484  0.62375742     0.12720
H2072       H  0.54239781  0.38809374  0.56484187     0.12720
H2073       H  0.03359820  0.33845168  0.59021881     0.12720
H2074       H  0.46730658  0.38364500  0.64878882     0.12720
C2075       C  0.96196393  0.12092275  0.87234200    -0.13420
C2076       C  0.98766974  0.10043165  0.87661800     0.08730
C2077       C  0.01833099  0.11006171  0.86884006    -0.13420
C2078       C  0.02302787  0.13903761  0.85591835    -0.13420
C2079       C  0.99708635  0.15885925  0.84986660     0.08730
C2080       C  0.96657566  0.14982232  0.85891378    -0.13420
H2081       H  0.93813105  0.11423341  0.87860448     0.12720
H2082       H  0.53877322  0.09522167  0.87266812     0.12720
H2083       H  0.54694962  0.14547997  0.84981100     0.12720
H2084       H  0.94608187  0.16450408  0.85454400     0.12720
C2085       C  0.66319469  0.10632393  0.64757490    -0.13340
C2086       C  0.64558115  0.12120811  0.63068898    -0.14900
C2087       C  0.58177017  0.17260408  0.63656325    -0.13340
C2088       C  0.60130499  0.15691209  0.62399238    -0.14900
C2089       C  0.66155497  0.17518528  0.57542695    -0.13340
C2090       C  0.64523678  0.15857172  0.59052750    -0.14900
C2091       C  0.60789259  0.11569574  0.58720981    -0.13340
C2092       C  0.59242812  0.09782039  0.57053892    -0.14900
C2093       C  0.88794963  0.39788131  0.87678485    -0.13340
C2094       C  0.90358130  0.41544775  0.89368635    -0.14900
C2095       C  0.85046922  0.35521490  0.87404194    -0.13340
C2096       C  0.83468034  0.33844114  0.88945086    -0.14900
C2097       C  0.83164014  0.40705916  0.81675051    -0.13340
C2098       C  0.84964240  0.39233258  0.83350837    -0.14900
C2099       C  0.91319189  0.33969612  0.82835225    -0.13340
C2100       C  0.89387507  0.35617285  0.84030990    -0.14900
C2101       C  0.87047105  0.87552273  0.35594718    -0.02560
C2102       C  0.62500817  0.63806615  0.10823661    -0.02560
C2103       C  0.54556806  0.90133662  0.46931676     0.42390
N2104       N  0.53140236  0.94680862  0.45587298     0.01280
C2105       C  0.53685295  0.57512235  0.05370569    -0.06600
H2106       H  0.96971840  0.97331203  0.08652698     0.06770
C2107       C  0.89261272  0.99664679  0.50491176    -0.06950
Co2108     Co  0.55090219  0.99312348  0.50532847     0.74180
N2109       N  0.00289548  0.98810972  0.05320886    -0.26130
Co2110     Co  0.98365897  0.02753128  0.03246896     0.74070
C2111       C  0.89079918  0.99550412  0.03835583     0.42490
N2112       N  0.94144806  0.97576032  0.43837621     0.00890
N2113       N  0.93922488  0.00584058  0.02689784     0.01000
N2114       N  0.58098338  0.55222717  0.03609745    -0.46980
H2115       H  0.56808469  0.91909052  0.51504003     0.06760
N2116       N  0.52895803  0.97551164  0.04295492     0.01280
N2117       N  0.96449595  0.56584420  0.00960369     0.01020
C2118       C  0.95004914  0.61108719  0.99569183     0.42630
N2119       N  0.96752190  0.96342686  0.42764301    -0.25580
C2120       C  0.60245590  0.51880965  0.46280726    -0.06500
N2121       N  0.53224852  0.91764840  0.44586912    -0.46690
N2122       N  0.96371463  0.59514896  0.01925240    -0.46910
C2123       C  0.60431147  0.52284853  0.42982135     0.42400
N2124       N  0.55447809  0.53649523  0.02747238     0.01270
N2125       N  0.99327299  0.52479375  0.41295943    -0.25610
N2126       N  0.54522799  0.95051541  0.48347928    -0.26100
N2127       N  0.96666749  0.53680158  0.42267191     0.00910
H2128       H  0.02750014  0.54082009  0.38114494     0.06800
H2129       H  0.92706343  0.59275462  0.45040486     0.06840
N2130       N  0.52847024  0.54923872  0.03783117    -0.26150
N2131       N  0.92353719  0.00329224  0.50001926    -0.25760
N2132       N  0.55702548  0.50711845  0.43939145     0.01280
C2133       C  0.51383487  0.94371645  0.07668651     0.42670
C2134       C  0.95917882  0.93788812  0.41116242    -0.07010
N2135       N  0.95034820  0.56180228  0.48216339    -0.25760
H2136       H  0.87321404  0.99687588  0.48764809     0.06820
N2137       N  0.53612140  0.94893607  0.05613472    -0.46980
H2138       H  0.97521091  0.92376496  0.39833511     0.06810
C2139       C  0.98271648  0.56964147  0.39016246     0.42510
C2140       C  0.55475271  0.92312942  0.49370832    -0.06510
Co2141     Co  0.51246274  0.48524064  0.43327107     0.73820
N2142       N  0.91498722  0.96016113  0.42931595    -0.46700
C2143       C  0.57150470  0.57718206  0.05226348     0.42770
N2144       N  0.57547719  0.51467159  0.41692696    -0.46690
Co2145     Co  0.94475101  0.51911948  0.46058035     0.73890
C2146       C  0.94057007  0.58900300  0.97170315    -0.07020
C2147       C  0.99171168  0.96983454  0.07497528    -0.06580
N2148       N  0.57214554  0.50942459  0.46655017    -0.26110
N2149       N  0.92064184  0.00151783  0.04998237    -0.46870
H2150       H  0.02084251  0.58965947  0.06611990     0.06780
C2151       C  0.00510671  0.54379909  0.39213111    -0.06990
Cl2152     Cl  0.99791216  0.50621991  0.48291248    -0.49990
C2153       C  0.92451005  0.93564269  0.41253485     0.42540
H2154       H  0.62128247  0.52046163  0.48061757     0.06750
N2155       N  0.95962088  0.56353932  0.40971131    -0.46700
C2156       C  0.85359776  0.69482599  0.47180814     0.42390
N2157       N  0.82010833  0.73160027  0.47713823     0.01280
C2158       C  0.66698343  0.71351002  0.03132194    -0.06600
H2159       H  0.67922979  0.69068005  0.41327922     0.06770
C2160       C  0.70861793  0.79239374  0.39464643    -0.06950
Co2161     Co  0.76052699  0.70558184  0.50318694     0.74180
N2162       N  0.70974395  0.69891020  0.45361973    -0.26130
Co2163     Co  0.69298519  0.74003700  0.47161332     0.74070
C2164       C  0.68837714  0.76712940  0.38138636     0.42490
N2165       N  0.77930677  0.80767455  0.43914659     0.00890
N2166       N  0.69554008  0.76014661  0.42938716     0.01000
N2167       N  0.71127118  0.68979489  0.05079968    -0.46980
H2168       H  0.81616103  0.65815220  0.48315464     0.06760
N2169       N  0.73634609  0.68605652  0.46430782     0.01280
N2170       N  0.67687729  0.78202701  0.48809569     0.01020
C2171       C  0.64360301  0.81905512  0.99304015     0.42630
N2172       N  0.80501260  0.79419238  0.45119264    -0.25580
C2173       C  0.78805148  0.72068566  0.07039483    -0.06500
N2174       N  0.85048837  0.72587009  0.47218083    -0.46690
N2175       N  0.64649801  0.78797456  0.99285691    -0.46910
C2176       C  0.80814462  0.74587091  0.08392266     0.42400
N2177       N  0.71750677  0.70564902  0.02598951     0.01270
N2178       N  0.78702407  0.81458349  0.01164900    -0.25610
N2179       N  0.80337944  0.70601308  0.48120535    -0.26100
N2180       N  0.76054416  0.82744934  0.50068999     0.00910
H2181       H  0.81700743  0.82272626  0.05236144     0.06800
H2182       H  0.68142394  0.85544447  0.98195567     0.06840
N2183       N  0.69191550  0.71939877  0.01403998    -0.26150
N2184       N  0.71201307  0.78573236  0.42465221    -0.25760
N2185       N  0.80125022  0.75324844  0.03595070     0.01280
C2186       C  0.72397282  0.66136586  0.42210407     0.42670
C2187       C  0.82988081  0.80023700  0.43385421    -0.07010
N2188       N  0.69374881  0.80750879  0.48400030    -0.25760
H2189       H  0.71904289  0.81210356  0.38367112     0.06820
N2190       N  0.74621861  0.66388774  0.44570280    -0.46980
H2191       H  0.85449647  0.79403721  0.43915076     0.06810
C2192       C  0.77237085  0.85210233  0.04301298     0.42510
C2193       C  0.82219462  0.68169267  0.47730751    -0.06510
Co2194     Co  0.80391456  0.77350410  0.49369134     0.73820
N2195       N  0.78534475  0.82344926  0.41425943    -0.46700
C2196       C  0.68001037  0.69421505  0.05582741     0.42770
N2197       N  0.81553777  0.76464423  0.06115364    -0.46690
Co2198     Co  0.73641584  0.80779624  0.46190720     0.73890
C2199       C  0.67514696  0.83196836  0.98782541    -0.07020
C2200       C  0.69954155  0.68414784  0.42782076    -0.06580
N2201       N  0.78481685  0.72757615  0.04046254    -0.26110
N2202       N  0.68109184  0.74860693  0.40435300    -0.46870
H2203       H  0.64243058  0.71990619  0.02599999     0.06780
C2204       C  0.79689889  0.82931005  0.03757830    -0.06990
Cl2205     Cl  0.74847010  0.75672446  0.48259974    -0.49990
C2206       C  0.81661408  0.81930121  0.40923576     0.42540
H2207       H  0.77759174  0.70086705  0.08115981     0.06750
N2208       N  0.75044694  0.84959908  0.01916918    -0.46700
C2209       C  0.61142517  0.74592177  0.27226177     0.42390
N2210       N  0.56697310  0.73007918  0.25079587     0.01280
C2211       C  0.97021415  0.82389875  0.16038417    -0.06600
H2212       H  0.50437726  0.87392534  0.25448321     0.06770
C2213       C  0.93641880  0.78677204  0.31154436    -0.06950
Co2214     Co  0.54255764  0.77444356  0.20398144     0.74180
N2215       N  0.51473399  0.82814572  0.23705035    -0.26130
Co2216     Co  0.97112535  0.80507670  0.22660375     0.74070
C2217       C  0.93554979  0.82069496  0.31238137     0.42490
N2218       N  0.98499480  0.71696176  0.29447362     0.00890
N2219       N  0.95886397  0.80534355  0.27216766     0.01000
N2220       N  0.51863077  0.80829592  0.14621535    -0.46980
H2221       H  0.61242815  0.78924654  0.24236310     0.06760
N2222       N  0.54159129  0.81537073  0.22887103     0.01280
N2223       N  0.92870443  0.78097213  0.21554369     0.01020
C2224       C  0.88441545  0.76523406  0.19369650     0.42630
N2225       N  0.01233548  0.70590925  0.28532110    -0.25580
C2226       C  0.55825375  0.72487126  0.15422178    -0.06500
N2227       N  0.58890648  0.72322191  0.27234808    -0.46690
N2228       N  0.90687347  0.78798956  0.19397206    -0.46910
C2229       C  0.55946378  0.69102196  0.15318656     0.42400
N2230       N  0.51065338  0.79475556  0.17190903     0.01270
N2231       N  0.98124461  0.68294686  0.22932917    -0.25610
N2232       N  0.57362615  0.75604213  0.23689149    -0.26100
N2233       N  0.95417181  0.69518077  0.23766590     0.00910
H2234       H  0.99301510  0.63699866  0.21364490     0.06800
H2235       H  0.88340737  0.72150257  0.22309718     0.06840
N2236       N  0.98308095  0.80499693  0.18122145    -0.26150
N2237       N  0.95124939  0.77936856  0.28580679    -0.25760
N2238       N  0.53685720  0.70584703  0.19400338     0.01280
C2239       C  0.55659862  0.86030216  0.24588574     0.42670
C2240       C  0.52492241  0.68749769  0.30687242    -0.07010
N2241       N  0.92204731  0.75483037  0.22914335    -0.25760
H2242       H  0.92424036  0.77053259  0.32569524     0.06820
N2243       N  0.56675927  0.83365090  0.23368784    -0.46980
H2244       H  0.54485547  0.67228609  0.30349683     0.06810
C2245       C  0.94066068  0.64921171  0.22223790     0.42510
C2246       C  0.60135303  0.76772320  0.24879080    -0.06510
Co2247     Co  0.52459911  0.70594446  0.23977480     0.73820
N2248       N  0.97716418  0.70505581  0.32094858    -0.46700
C2249       C  0.49425039  0.82727486  0.13755655     0.42770
N2250       N  0.54632030  0.68102680  0.17885533    -0.46690
Co2251     Co  0.95296218  0.73661861  0.26224933     0.73890
C2252       C  0.89444164  0.74314463  0.21694866    -0.07020
C2253       C  0.52170528  0.85693168  0.24797088    -0.06580
N2254       N  0.54394437  0.73193696  0.18029292    -0.26110
N2255       N  0.94936662  0.83034283  0.28697028    -0.46870
H2256       H  0.94961242  0.83809809  0.16416379     0.06780
C2257       C  0.97513522  0.65381162  0.21923925    -0.06870
Cl2258     Cl  0.99780406  0.75550773  0.23315612    -0.49990
C2259       C  0.00140249  0.68635710  0.33045085     0.42540
H2260       H  0.56996758  0.74132230  0.13994431     0.06750
N2261       N  0.92968906  0.67574292  0.23416982    -0.46700
C2262       C  0.68958344  0.00381054  0.33547063     0.42390
N2263       N  0.72662373  0.00630625  0.30298226     0.01280
C2264       C  0.69909954  0.55855247  0.15398744    -0.06600
H2265       H  0.66106716  0.94378641  0.17829295     0.06770
C2266       C  0.77443927  0.91625276  0.18481873    -0.06950
Co2267     Co  0.69908792  0.53560657  0.24589251     0.74180
N2268       N  0.67970567  0.98497723  0.20165530    -0.26130
Co2269     Co  0.72207617  0.99616366  0.18104151     0.74070
C2270       C  0.74952881  0.90727385  0.16134794     0.42490
N2271       N  0.79489655  0.95536592  0.26104477     0.00890
N2272       N  0.73720818  0.95054019  0.18289515     0.01000
N2273       N  0.68376588  0.58382530  0.19638507    -0.46980
H2274       H  0.65137449  0.01901051  0.29969173     0.06760
N2275       N  0.67052675  0.00060773  0.22578324     0.01280
N2276       N  0.76553569  0.50678291  0.16174704     0.01020
C2277       C  0.80196588  0.51536419  0.13004176     0.42630
N2278       N  0.78581438  0.97041739  0.28567183    -0.25580
C2279       C  0.71915040  0.59682421  0.27997026    -0.06500
N2280       N  0.72159030  0.00138391  0.33233294    -0.46690
N2281       N  0.76992852  0.51490510  0.13306402    -0.46910
C2282       C  0.74420101  0.60549726  0.30346107     0.42400
N2283       N  0.69841450  0.55756340  0.20345634     0.01270
N2284       N  0.81325931  0.52746212  0.26364846    -0.25610
N2285       N  0.69990667  0.01332506  0.28739471    -0.26100
N2286       N  0.82203700  0.51279759  0.23878774     0.00910
H2287       H  0.83341750  0.56636250  0.28968374     0.06800
H2288       H  0.84175175  0.49969006  0.16408914     0.06840
N2289       N  0.70698179  0.54207481  0.17892750    -0.26150
N2290       N  0.76504062  0.94346719  0.19643440    -0.25760
N2291       N  0.75590155  0.56208330  0.28187882     0.01280
C2292       C  0.63541595  0.96433508  0.21928541     0.42670
C2293       C  0.79421951  0.95397623  0.31053329    -0.07010
N2294       N  0.79268841  0.50018171  0.17683406    -0.25760
H2295       H  0.79826339  0.90708600  0.18832726     0.06820
N2296       N  0.64444647  0.98876354  0.23731774    -0.46980
H2297       H  0.79259731  0.96187169  0.33400941     0.06810
C2298       C  0.85825518  0.54765216  0.24727908     0.42510
C2299       C  0.67538344  0.01127737  0.30555451    -0.06510
Co2300     Co  0.77060231  0.51635872  0.28381579     0.73820
N2301       N  0.81029344  0.92945518  0.26802601    -0.46700
C2302       C  0.68401246  0.58631670  0.16559090     0.42770
N2303       N  0.76601294  0.58282257  0.30277211    -0.46690
Co2304     Co  0.79392505  0.97760225  0.21851376     0.73890
C2305       C  0.81699999  0.50542657  0.15882741    -0.07020
C2306       C  0.65899236  0.96153478  0.19580187    -0.06580
N2307       N  0.72823292  0.56952369  0.26821507    -0.26110
N2308       N  0.72737527  0.92966882  0.16200819    -0.46870
H2309       H  0.70078908  0.55058817  0.13054080     0.06780
C2310       C  0.83485826  0.54980995  0.27098805    -0.06990
Cl2311     Cl  0.74642634  0.00640217  0.23233251    -0.49990
C2312       C  0.81017084  0.92669943  0.29881942     0.42540
H2313       H  0.69546398  0.60632081  0.27648845     0.06750
N2314       N  0.84857243  0.52441716  0.22795877    -0.46700
C2315       C  0.91584376  0.61464771  0.25875425    -0.13420
C2316       C  0.92481271  0.61980359  0.22873836     0.08730
C2317       C  0.91469362  0.59906571  0.20520042    -0.13420
C2318       C  0.89416943  0.57432128  0.21146470    -0.13420
C2319       C  0.88353331  0.57042313  0.24125181     0.08730
C2320       C  0.89535522  0.59018961  0.26496563    -0.13420
H2321       H  0.92362647  0.63043773  0.27722129     0.12720
H2322       H  0.92123906  0.60294827  0.18188451     0.12720
H2323       H  0.88530906  0.55929102  0.19279280     0.12720
H2324       H  0.88795187  0.58739009  0.28816078     0.12720
C2325       C  0.58303075  0.94358482  0.23611453    -0.13420
C2326       C  0.61525519  0.93901297  0.22970323     0.08730
C2327       C  0.62859541  0.90967865  0.23311731    -0.13420
C2328       C  0.60965757  0.88477760  0.24117397    -0.13420
C2329       C  0.57673437  0.88848616  0.24512819     0.08730
C2330       C  0.56365060  0.91827747  0.24350418    -0.13420
H2331       H  0.57259050  0.96633700  0.23397779     0.12720
H2332       H  0.65362812  0.90591234  0.22905043     0.12720
H2333       H  0.62054039  0.86216298  0.24272765     0.12720
H2334       H  0.53837413  0.92174994  0.24641552     0.12720
C2335       C  0.79076001  0.86675664  0.09677833    -0.13420
C2336       C  0.76648141  0.86623896  0.07330544     0.08730
C2337       C  0.73609155  0.87731182  0.07979735    -0.13420
C2338       C  0.73023636  0.88899632  0.10901724    -0.13420
C2339       C  0.75467573  0.89006237  0.13236323     0.08730
C2340       C  0.78490911  0.87839824  0.12598732    -0.13420
H2341       H  0.81449689  0.85844463  0.09260067     0.12720
H2342       H  0.71679795  0.87683207  0.06235543     0.12720
H2343       H  0.70669491  0.89791545  0.11313472     0.12720
H2344       H  0.80440220  0.87902508  0.14316975     0.12720
C2345       C  0.75952221  0.63631958  0.38450804    -0.13420
C2346       C  0.72921581  0.64704738  0.39173060     0.08730
C2347       C  0.70429109  0.64600697  0.36886766    -0.13420
C2348       C  0.70943374  0.63418794  0.33955453    -0.13420
C2349       C  0.73960844  0.62290793  0.33245419     0.08730
C2350       C  0.76467348  0.62447842  0.35518190    -0.13420
H2351       H  0.77928654  0.63720055  0.40145275     0.12720
H2352       H  0.68058362  0.65401042  0.37363169     0.12720
H2353       H  0.68946789  0.63306904  0.32288856     0.12720
H2354       H  0.78818702  0.61583440  0.35049377     0.12720
C2355       C  0.66274549  0.73164810  0.34286294    -0.13420
C2356       C  0.67467304  0.76150833  0.35030617     0.08730
C2357       C  0.66934982  0.78558664  0.32968825    -0.13420
C2358       C  0.65012478  0.78023759  0.30297001    -0.13420
C2359       C  0.63615803  0.75080649  0.29689157     0.08730
C2360       C  0.64357249  0.72637615  0.31648456    -0.13420
H2361       H  0.66695065  0.71254515  0.35825025     0.12720
H2362       H  0.67828340  0.80876439  0.33509446     0.12720
H2363       H  0.64477013  0.79950085  0.28812900     0.12720
H2364       H  0.63343657  0.70343512  0.31210267     0.12720
C2365       C  0.83339955  0.78075653  0.12320957    -0.13420
C2366       C  0.82168067  0.75099304  0.11512433     0.08730
C2367       C  0.82696348  0.72651091  0.13529211    -0.13420
C2368       C  0.84598648  0.73138750  0.16220605    -0.13420
C2369       C  0.85976369  0.76075562  0.16894195     0.08730
C2370       C  0.85233906  0.78557431  0.14981772    -0.13420
H2371       H  0.82920980  0.80013721  0.10816075     0.12720
H2372       H  0.81817307  0.70339500  0.12937970     0.12720
H2373       H  0.85136509  0.71184392  0.17667518     0.12720
H2374       H  0.86233516  0.80847940  0.15472536     0.12720
C2375       C  0.90987010  0.64453989  0.01775506    -0.13420
C2376       C  0.93442626  0.64103319  0.99740666     0.08730
C2377       C  0.93531378  0.66006360  0.47165676    -0.13420
C2378       C  0.90986975  0.67969348  0.46431487    -0.13420
C2379       C  0.88333411  0.68002764  0.48253936     0.08730
C2380       C  0.88426521  0.66383341  0.51022439    -0.13420
H2381       H  0.90846547  0.62962363  0.03735922     0.12720
H2382       H  0.95389713  0.65714458  0.45544303     0.12720
H2383       H  0.90963067  0.69238482  0.44313670     0.12720
H2384       H  0.86418504  0.66448485  0.02498560     0.12720
C2385       C  0.58821500  0.87085141  0.44778229    -0.13420
C2386       C  0.56229819  0.87208197  0.46680281     0.08730
C2387       C  0.56064257  0.85141598  0.49119702    -0.13420
C2388       C  0.58640269  0.83218657  0.49864324    -0.13420
C2389       C  0.61405498  0.83402137  0.48200439     0.08730
C2390       C  0.61412331  0.85204935  0.95548627    -0.13420
H2391       H  0.59018841  0.88707652  0.42928297     0.12720
H2392       H  0.54099354  0.85260956  0.50643502     0.12720
H2393       H  0.58584053  0.81801582  0.51883093     0.12720
H2394       H  0.63500452  0.85304624  0.94177015     0.12720
C2395       C  0.65496133  0.49892040  0.41354498    -0.13420
C2396       C  0.63285328  0.52321431  0.41162358     0.08730
C2397       C  0.63367499  0.54375087  0.38730737    -0.13420
C2398       C  0.65456384  0.53881269  0.36394148    -0.13420
C2399       C  0.67446490  0.01274995  0.36406642     0.08730
C2400       C  0.67576239  0.99367156  0.38974728    -0.13420
H2401       H  0.65417152  0.48249500  0.43196558     0.12720
H2402       H  0.61663050  0.56243187  0.38536019     0.12720
H2403       H  0.65363544  0.55436686  0.34473157     0.12720
H2404       H  0.69090743  0.97348962  0.39027446     0.12720
C2405       C  0.83579055  0.98510462  0.05727997    -0.13420
C2406       C  0.86320157  0.00405656  0.05636377     0.08730
C2407       C  0.86657742  0.02982526  0.07635653    -0.13420
C2408       C  0.84455174  0.53507451  0.09866014    -0.13420
C2409       C  0.81841838  0.51499471  0.10115020     0.08730
C2410       C  0.81340575  0.99055788  0.07970830    -0.13420
H2411       H  0.83290366  0.96499471  0.04223497     0.12720
H2412       H  0.88740198  0.04494792  0.07593135     0.12720
H2413       H  0.84904655  0.55369368  0.11528351     0.12720
H2414       H  0.79371256  0.97434714  0.08186026     0.12720
C2415       C  0.48845358  0.91183977  0.11596170    -0.13420
C2416       C  0.50959928  0.91390893  0.09227493     0.08730
C2417       C  0.52592908  0.88714226  0.08319759    -0.13420
C2418       C  0.52079933  0.85873458  0.09752289    -0.13420
C2419       C  0.49917405  0.85664693  0.12102044     0.08730
C2420       C  0.48334826  0.88369808  0.13016255    -0.13420
H2421       H  0.47592646  0.93207540  0.12375726     0.12720
H2422       H  0.54239882  0.88809439  0.06484271     0.12720
H2423       H  0.03359856  0.83845186  0.09021969     0.12720
H2424       H  0.46730639  0.88364563  0.14878868     0.12720
C2425       C  0.96196312  0.62092156  0.37234149    -0.13420
C2426       C  0.98766887  0.60043036  0.37661736     0.08730
C2427       C  0.01833010  0.61006031  0.36883923    -0.13420
C2428       C  0.02302702  0.63903621  0.35591753    -0.13420
C2429       C  0.99708556  0.65885799  0.34986598     0.08730
C2430       C  0.96657489  0.64982114  0.35891328    -0.13420
H2431       H  0.93813026  0.61423232  0.37860410     0.12720
H2432       H  0.53877243  0.59522033  0.37266707     0.12720
H2433       H  0.54694897  0.64547855  0.34980988     0.12720
H2434       H  0.94608115  0.66450300  0.35454364     0.12720
C2435       C  0.66319522  0.60632416  0.14757467    -0.13340
C2436       C  0.64558180  0.62120858  0.13068884    -0.14900
C2437       C  0.58177066  0.67260455  0.13656315    -0.13340
C2438       C  0.60130562  0.65691264  0.12399237    -0.14900
C2439       C  0.66155554  0.67518598  0.07542687    -0.13340
C2440       C  0.64523741  0.65857237  0.09052743    -0.14900
C2441       C  0.60789317  0.61569638  0.08720974    -0.13340
C2442       C  0.59242863  0.59782099  0.07053897    -0.14900
C2443       C  0.88794851  0.89788066  0.37678481    -0.13340
C2444       C  0.90358027  0.91544708  0.39368626    -0.14900
C2445       C  0.85046793  0.85521439  0.37404194    -0.13340
C2446       C  0.83467905  0.83844072  0.38945099    -0.14900
C2447       C  0.83163931  0.90705882  0.31675038    -0.13340
C2448       C  0.84964137  0.89233205  0.33350829    -0.14900
C2449       C  0.91319091  0.83969548  0.32835248    -0.13340
C2450       C  0.89387392  0.85617214  0.34030998    -0.14900
C2451       C  0.87047187  0.87552337  0.85594690    -0.02560
C2452       C  0.62500751  0.63806509  0.60823663    -0.02560
C2453       C  0.54556830  0.90133717  0.96931624     0.42390
N2454       N  0.53140282  0.94680931  0.95587273     0.01280
C2455       C  0.53685246  0.57512131  0.55370545    -0.06600
H2456       H  0.96971793  0.97331194  0.58652700     0.06770
C2457       C  0.89261324  0.99664712  0.00491183    -0.06950
Co2458     Co  0.55090267  0.99312377  0.00532855     0.74180
N2459       N  0.00289501  0.98810967  0.55320886    -0.26130
Co2460     Co  0.98365843  0.02753112  0.53246873     0.74070
C2461       C  0.89079865  0.99550403  0.53835578     0.42490
N2462       N  0.94144859  0.97576110  0.93837608     0.00890
N2463       N  0.93922435  0.00584039  0.52689775     0.01000
N2464       N  0.58098287  0.55222619  0.53609713    -0.46980
H2465       H  0.56808486  0.91909070  0.01503968     0.06760
N2466       N  0.52895761  0.97551156  0.54295494     0.01280
N2467       N  0.96449540  0.56584331  0.50960341     0.01020
C2468       C  0.95004868  0.61108633  0.49569157     0.42630
N2469       N  0.96752245  0.96342776  0.92764279    -0.25580
C2470       C  0.60245664  0.51881052  0.96280792    -0.06500
N2471       N  0.53224889  0.91764914  0.94586869    -0.46690
N2472       N  0.96371418  0.59514807  0.51925212    -0.46910
C2473       C  0.60431231  0.52284942  0.92982203     0.42400
N2474       N  0.55447757  0.53649432  0.52747193     0.01270
N2475       N  0.99327385  0.52479465  0.91295983    -0.25610
N2476       N  0.54522839  0.95051587  0.98347908    -0.26100
N2477       N  0.96666830  0.53680245  0.92267223     0.00910
H2478       H  0.02750110  0.54082106  0.88114547     0.06800
H2479       H  0.92706402  0.59275543  0.95040508     0.06840
N2480       N  0.52846974  0.54923778  0.53783079    -0.26150
N2481       N  0.92353771  0.00329260  0.00001934    -0.25760
N2482       N  0.55702627  0.50711937  0.93939200     0.01280
C2483       C  0.51383453  0.94371641  0.57668658     0.42670
C2484       C  0.95917942  0.93788911  0.91116204    -0.07010
N2485       N  0.95034881  0.56180314  0.98216365    -0.25760
H2486       H  0.87321455  0.99687631  0.98764816     0.06820
N2487       N  0.53612105  0.94893605  0.55613481    -0.46980
H2488       H  0.97521154  0.92376604  0.89833467     0.06810
C2489       C  0.98271736  0.56964238  0.89016288     0.42510
C2490       C  0.55475296  0.92312979  0.99370796    -0.06510
Co2491     Co  0.51246356  0.48524154  0.93327150     0.73820
N2492       N  0.91498778  0.96016191  0.92931573    -0.46700
C2493       C  0.57150421  0.57718101  0.55226329     0.42770
N2494       N  0.57547806  0.51467251  0.91692756    -0.46690
Co2495     Co  0.94475173  0.51912033  0.96058061     0.73890
C2496       C  0.94056950  0.58900216  0.47170291    -0.07020
C2497       C  0.99171125  0.96983451  0.57497534    -0.06580
N2498       N  0.57214626  0.50942548  0.96655076    -0.26110
N2499       N  0.92064130  0.00151781  0.54998229    -0.46870
H2500       H  0.02084201  0.58965836  0.56611976     0.06780
C2501       C  0.00510762  0.54380003  0.89213156    -0.06990
Cl2502     Cl  0.99791283  0.50622079  0.98291287    -0.49990
C2503       C  0.92451066  0.93564360  0.91253446     0.42540
H2504       H  0.62128317  0.52046248  0.98061828     0.06750
N2505       N  0.95962170  0.56354018  0.90971163    -0.46700
C2506       C  0.85359826  0.69482695  0.97180827     0.42390
N2507       N  0.82010888  0.73160131  0.97713820     0.01280
C2508       C  0.66698297  0.71350873  0.53132204    -0.06600
H2509       H  0.67923031  0.69068117  0.91327916     0.06770
C2510       C  0.70861842  0.79239482  0.89464614    -0.06950
Co2511     Co  0.76052746  0.70558306  0.00318690     0.74180
N2512       N  0.70974447  0.69891135  0.95361966    -0.26130
Co2513     Co  0.69298575  0.74003821  0.97161316     0.74070
C2514       C  0.68837754  0.76713051  0.88138615     0.42490
N2515       N  0.77930743  0.80767550  0.93914626     0.00890
N2516       N  0.69554064  0.76014773  0.92938694     0.01000
N2517       N  0.71127073  0.68979356  0.55079972    -0.46980
H2518       H  0.81616144  0.65815327  0.98315483     0.06760
N2519       N  0.73634657  0.68605765  0.96430781     0.01280
N2520       N  0.67687794  0.78202827  0.98809546     0.01020
C2521       C  0.64360239  0.81905388  0.49304057     0.42630
N2522       N  0.80501323  0.79419332  0.95119238    -0.25580
C2523       C  0.78805121  0.72068420  0.57039489    -0.06500
N2524       N  0.85048892  0.72587105  0.97218087    -0.46690
N2525       N  0.64649736  0.78797331  0.49285715    -0.46910
C2526       C  0.80814437  0.74586943  0.58392273     0.42400
N2527       N  0.71750630  0.70564772  0.52598956     0.01270
N2528       N  0.78702340  0.81458228  0.51164939    -0.25610
N2529       N  0.80337994  0.70601416  0.98120536    -0.26100
N2530       N  0.76054484  0.82745055  0.00068958     0.00910
H2531       H  0.81700673  0.82272494  0.55236188     0.06800
H2532       H  0.68142336  0.85544325  0.48195628     0.06840
N2533       N  0.69191502  0.71939749  0.51404007    -0.26150
N2534       N  0.71201366  0.78573344  0.92465193    -0.25760
N2535       N  0.80124973  0.75324715  0.53595083     0.01280
C2536       C  0.72397327  0.66136689  0.92210411     0.42670
C2537       C  0.82988147  0.80023782  0.93385395    -0.07010
N2538       N  0.69374944  0.80751003  0.98399995    -0.25760
H2539       H  0.71904335  0.81210463  0.88367079     0.06820
N2540       N  0.74621905  0.66388879  0.94570285    -0.46980
H2541       H  0.85449710  0.79403802  0.93915055     0.06810
C2542       C  0.77237012  0.85210100  0.54301348     0.42510
C2543       C  0.82219508  0.68169371  0.97730763    -0.06510
Co2544     Co  0.80391515  0.77350522  0.99369114     0.73820
N2545       N  0.78534546  0.82345012  0.91425906    -0.46700
C2546       C  0.68000993  0.69421374  0.55582746     0.42770
N2547       N  0.81553737  0.76464286  0.56115376    -0.46690
Co2548     Co  0.73641648  0.80779736  0.96190685     0.73890
C2549       C  0.67514636  0.83196711  0.48782590    -0.07020
C2550       C  0.69954206  0.68414896  0.92782072    -0.06580
N2551       N  0.78481642  0.72757482  0.54046263    -0.26110
N2552       N  0.68109230  0.74860806  0.90435283    -0.46870
H2553       H  0.64243012  0.71990492  0.52600012     0.06780
C2554       C  0.79689818  0.82930875  0.53757876    -0.06990
Cl2555     Cl  0.74847067  0.75672562  0.98259956    -0.49990
C2556       C  0.81661479  0.81930198  0.90923544     0.42540
H2557       H  0.77759157  0.70086551  0.58115982     0.06750
N2558       N  0.75044623  0.84959781  0.51916965    -0.46700
C2559       C  0.61142543  0.74592248  0.77226165     0.42390
N2560       N  0.56697346  0.73007957  0.75079579     0.01280
C2561       C  0.97021400  0.82389823  0.66038358    -0.06600
H2562       H  0.50437690  0.87392529  0.75448259     0.06770
C2563       C  0.93641923  0.78677240  0.81154413    -0.06950
Co2564     Co  0.54255775  0.77444352  0.70398106     0.74180
N2565       N  0.51473384  0.82814574  0.73704965    -0.26130
Co2566     Co  0.97112531  0.80507650  0.72660319     0.74070
C2567       C  0.93555021  0.82069532  0.81238093     0.42490
N2568       N  0.98499531  0.71696221  0.79447371     0.00890
N2569       N  0.95886402  0.80534365  0.77216711     0.01000
N2570       N  0.51863075  0.80829563  0.64621489    -0.46980
H2571       H  0.61242823  0.78924707  0.74236273     0.06760
N2572       N  0.54159121  0.81537084  0.72887038     0.01280
N2573       N  0.92870449  0.78097165  0.71554333     0.01020
C2574       C  0.88441563  0.76523313  0.69369624     0.42630
N2575       N  0.01233601  0.70590973  0.78532124    -0.25580
C2576       C  0.55825372  0.72487084  0.65422160    -0.06500
N2577       N  0.58890685  0.72322253  0.77234807    -0.46690
N2578       N  0.90687349  0.78798877  0.69397162    -0.46910
C2579       C  0.55946366  0.69102153  0.65318657     0.42400
N2580       N  0.51065337  0.79475521  0.67190854     0.01270
N2581       N  0.98124516  0.68294678  0.72932951    -0.25610
N2582       N  0.57362639  0.75604244  0.73689125    -0.26100
N2583       N  0.95417231  0.69518063  0.73766621     0.00910
H2584       H  0.99301580  0.63699859  0.71364533     0.06800
H2585       H  0.88340781  0.72150190  0.72309727     0.06840
N2586       N  0.98308085  0.80499648  0.68122089    -0.26150
N2587       N  0.95124959  0.77936875  0.78580648    -0.25760
N2588       N  0.53685752  0.70584691  0.69400350     0.01280
C2589       C  0.55659833  0.86030229  0.74588516     0.42670
C2590       C  0.52492308  0.68749841  0.80687274    -0.07010
N2591       N  0.92204752  0.75482999  0.72914322    -0.25760
H2592       H  0.92424101  0.77053303  0.82569526     0.06820
N2593       N  0.56675912  0.83365109  0.73368726    -0.46980
H2594       H  0.54485621  0.67228686  0.80349726     0.06810
C2595       C  0.94066134  0.64921151  0.72223833     0.42510
C2596       C  0.60135321  0.76772372  0.74879053    -0.06510
Co2597     Co  0.52459957  0.70594462  0.73977494     0.73820
N2598       N  0.97716480  0.70505648  0.82094880    -0.46700
C2599       C  0.49425029  0.82727446  0.63755604     0.42770
N2600       N  0.54632042  0.68102656  0.67885551    -0.46690
Co2601     Co  0.95296253  0.73661864  0.76224933     0.73890
C2602       C  0.89444194  0.74314397  0.71694860    -0.07020
C2603       C  0.52170499  0.85693172  0.74797020    -0.06580
N2604       N  0.54394459  0.73193674  0.68029282    -0.26110
N2605       N  0.94936680  0.83034303  0.78696965    -0.46870
H2606       H  0.94961222  0.83809752  0.66416318     0.06780
C2607       C  0.97513587  0.65381150  0.71923968    -0.06870
Cl2608     Cl  0.99780427  0.75550772  0.73315591    -0.49990
C2609       C  0.00140320  0.68635793  0.83045119     0.42540
H2610       H  0.56996737  0.74132177  0.63994387     0.06750
N2611       N  0.92968963  0.67574270  0.73417019    -0.46700
C2612       C  0.68958383  0.00381041  0.83547090     0.42390
N2613       N  0.72662396  0.00630619  0.80298237     0.01280
C2614       C  0.69909931  0.55855222  0.65398788    -0.06600
H2615       H  0.66106692  0.94378655  0.67829304     0.06770
C2616       C  0.77443920  0.91625280  0.68481871    -0.06950
Co2617     Co  0.69908807  0.53560660  0.74589304     0.74180
N2618       N  0.67970561  0.98497724  0.70165551    -0.26130
Co2619     Co  0.72207604  0.99616370  0.68104162     0.74070
C2620       C  0.74952863  0.90727382  0.66134805     0.42490
N2621       N  0.79489670  0.95536602  0.76104461     0.00890
N2622       N  0.73720811  0.95054024  0.68289516     0.01000
N2623       N  0.68376565  0.58382512  0.69638547    -0.46980
H2624       H  0.65137472  0.01901045  0.79969220     0.06760
N2625       N  0.67052675  0.00060772  0.72578350     0.01280
N2626       N  0.76553561  0.50678286  0.66174735     0.01020
C2627       C  0.80196569  0.51536411  0.63004194     0.42630
N2628       N  0.78581457  0.97041745  0.78567170    -0.25580
C2629       C  0.71915054  0.59682432  0.77997067    -0.06500
N2630       N  0.72159067  0.00138382  0.83233307    -0.46690
N2631       N  0.76992834  0.51490498  0.63306429    -0.46910
C2632       C  0.74420120  0.60549743  0.80346140     0.42400
N2633       N  0.69841446  0.55756333  0.70345680     0.01270
N2634       N  0.81325953  0.52746233  0.76364863    -0.25610
N2635       N  0.69990683  0.01332501  0.78739493    -0.26100
N2636       N  0.82203715  0.51279777  0.73878790     0.00910
H2637       H  0.83341786  0.56636265  0.78968392     0.06800
H2638       H  0.84175168  0.49969014  0.66408924     0.06840
N2639       N  0.70698174  0.54207470  0.67892798    -0.26150
N2640       N  0.76504060  0.94346727  0.69643433    -0.25760
N2641       N  0.75590178  0.56208348  0.78187914     0.01280
C2642       C  0.63541582  0.96433521  0.71928557     0.42670
C2643       C  0.79421983  0.95397631  0.81053313    -0.07010
N2644       N  0.79268839  0.50018175  0.67683431    -0.25760
H2645       H  0.79826331  0.90708602  0.68832720     0.06820
N2646       N  0.64444644  0.98876358  0.73731798    -0.46980
H2647       H  0.79259772  0.96187176  0.83400927     0.06810
C2648       C  0.85825542  0.54765226  0.74727920     0.42510
C2649       C  0.67538369  0.01127729  0.80555485    -0.06510
Co2650     Co  0.77060262  0.51635892  0.78381611     0.73820
N2651       N  0.81029370  0.92945533  0.76802579    -0.46700
C2652       C  0.68401212  0.58631639  0.66559128     0.42770
N2653       N  0.76601318  0.58282279  0.80277239    -0.46690
Co2654     Co  0.79392505  0.97760238  0.71851363     0.73890
C2655       C  0.81699990  0.50542660  0.65882758    -0.07020
C2656       C  0.65899222  0.96153487  0.69580203    -0.06580
N2657       N  0.72823309  0.56952381  0.76821547    -0.26110
N2658       N  0.72737512  0.92966882  0.66200828    -0.46870
H2659       H  0.70078876  0.55058782  0.63054126     0.06780
C2660       C  0.83485853  0.54981012  0.77098820    -0.06990
Cl2661     Cl  0.74642634  0.00640221  0.73233257    -0.49990
C2662       C  0.81017122  0.92669957  0.79881920     0.42540
H2663       H  0.69546409  0.60632085  0.77648893     0.06750
N2664       N  0.84857261  0.52441728  0.72795890    -0.46700
C2665       C  0.91584451  0.61464737  0.75875460    -0.13420
C2666       C  0.92481338  0.61980337  0.72873870     0.08730
C2667       C  0.91469409  0.59906567  0.70520068    -0.13420
C2668       C  0.89416976  0.57432132  0.71146488    -0.13420
C2669       C  0.88353370  0.57042309  0.74125200     0.08730
C2670       C  0.89535582  0.59018936  0.76496590    -0.13420
H2671       H  0.92362735  0.63043727  0.77722170     0.12720
H2672       H  0.92123946  0.60294833  0.68188476     0.12720
H2673       H  0.88530923  0.55929122  0.69279292     0.12720
H2674       H  0.88795251  0.58738977  0.78816105     0.12720
C2675       C  0.58303040  0.94358495  0.73611408    -0.13420
C2676       C  0.61525499  0.93901315  0.72970333     0.08730
C2677       C  0.62859526  0.90967889  0.73311779    -0.13420
C2678       C  0.60965734  0.88477783  0.74117425    -0.13420
C2679       C  0.57673403  0.88848633  0.74512791     0.08730
C2680       C  0.56365019  0.91827759  0.74350355    -0.13420
H2681       H  0.57259011  0.96633708  0.73397702     0.12720
H2682       H  0.65362807  0.90591264  0.72905131     0.12720
H2683       H  0.62054019  0.86216324  0.74272820     0.12720
H2684       H  0.53837363  0.92174999  0.74641444     0.12720
C2685       C  0.79075934  0.86675540  0.59677881    -0.13420
C2686       C  0.76648078  0.86623784  0.57330589     0.08730
C2687       C  0.73609107  0.87731118  0.57979766    -0.13420
C2688       C  0.73023600  0.88899606  0.60901745    -0.13420
C2689       C  0.75467535  0.89006202  0.63236345     0.08730
C2690       C  0.78490856  0.87839739  0.62598770    -0.13420
H2691       H  0.81449610  0.85844303  0.59260127     0.12720
H2692       H  0.71679749  0.87683154  0.56235571     0.12720
H2693       H  0.70669467  0.89791555  0.61313481     0.12720
H2694       H  0.80440163  0.87902411  0.64317015     0.12720
C2695       C  0.75952247  0.63631994  0.88450833    -0.13420
C2696       C  0.72921619  0.64704819  0.89173072     0.08730
C2697       C  0.70429155  0.64600795  0.86886770    -0.13420
C2698       C  0.70943415  0.63418868  0.83955466    -0.13420
C2699       C  0.73960873  0.62290824  0.83245447     0.08730
C2700       C  0.76467370  0.62447853  0.85518226    -0.13420
H2701       H  0.77928675  0.63720075  0.90145310     0.12720
H2702       H  0.68058416  0.65401173  0.87363159     0.12720
H2703       H  0.68946836  0.63306996  0.82288861     0.12720
H2704       H  0.78818714  0.61583419  0.85049427     0.12720
C2705       C  0.66274589  0.73164912  0.84286281    -0.13420
C2706       C  0.67467336  0.76150940  0.85030598     0.08730
C2707       C  0.66935000  0.78558767  0.82968804    -0.13420
C2708       C  0.65012493  0.78023853  0.80296982    -0.13420
C2709       C  0.63615829  0.75080736  0.79689144     0.08730
C2710       C  0.64357287  0.72637708  0.81648447    -0.13420
H2711       H  0.66695115  0.71254621  0.85825013     0.12720
H2712       H  0.67828351  0.80876545  0.83509421     0.12720
H2713       H  0.64477017  0.79950174  0.78812879     0.12720
H2714       H  0.63343703  0.70343601  0.81210262     0.12720
C2715       C  0.83339899  0.78075517  0.62320968    -0.13420
C2716       C  0.82168050  0.75099156  0.61512438     0.08730
C2717       C  0.82696388  0.72650939  0.63529200    -0.13420
C2718       C  0.84598702  0.73138612  0.66220584    -0.13420
C2719       C  0.85976381  0.76075442  0.66894179     0.08730
C2720       C  0.85233864  0.78557309  0.64981771    -0.13420
H2721       H  0.82920881  0.80013587  0.60816098     0.12720
H2722       H  0.81817380  0.70339339  0.62937952     0.12720
H2723       H  0.85136607  0.71184255  0.67667485     0.12720
H2724       H  0.86233441  0.80847830  0.65472540     0.12720
C2725       C  0.90986973  0.64453906  0.51775490    -0.13420
C2726       C  0.93442585  0.64103235  0.49740645     0.08730
C2727       C  0.93531424  0.66006446  0.97165699    -0.13420
C2728       C  0.90987025  0.67969438  0.96431509    -0.13420
C2729       C  0.88333458  0.68002854  0.98253953     0.08730
C2730       C  0.88426561  0.66383427  0.01022453    -0.13420
H2731       H  0.90846515  0.62962281  0.53735907     0.12720
H2732       H  0.95389763  0.65714545  0.95544330     0.12720
H2733       H  0.90963122  0.69238575  0.94313693     0.12720
H2734       H  0.86418467  0.66448399  0.52498549     0.12720
C2735       C  0.58821536  0.87085226  0.94778169    -0.13420
C2736       C  0.56229846  0.87208257  0.96680211     0.08730
C2737       C  0.56064289  0.85141649  0.99119625    -0.13420
C2738       C  0.58640317  0.83218733  0.99864258    -0.13420
C2739       C  0.61405555  0.83402245  0.98200388     0.08730
C2740       C  0.61412278  0.85204826  0.45548677    -0.13420
H2741       H  0.59018871  0.88707743  0.92928241     0.12720
H2742       H  0.54099378  0.85260987  0.00643416     0.12720
H2743       H  0.58584104  0.81801653  0.01883023     0.12720
H2744       H  0.63500394  0.85304495  0.44177056     0.12720
C2745       C  0.65496193  0.49892084  0.91354565    -0.13420
C2746       C  0.63285419  0.52321502  0.91162433     0.08730
C2747       C  0.63367619  0.54375166  0.88730821    -0.13420
C2748       C  0.65456499  0.53881330  0.86394231    -0.13420
C2749       C  0.67446549  0.01274993  0.86406676     0.08730
C2750       C  0.67576257  0.99367131  0.88974746    -0.13420
H2751       H  0.65417189  0.48249538  0.93196617     0.12720
H2752       H  0.61663192  0.56243286  0.88536109     0.12720
H2753       H  0.65363677  0.55436753  0.84473243     0.12720
H2754       H  0.69090723  0.97348909  0.89027448     0.12720
C2755       C  0.83579008  0.98510456  0.55728002    -0.13420
C2756       C  0.86320102  0.00405658  0.55636363     0.08730
C2757       C  0.86657680  0.02982546  0.57635615    -0.13420
C2758       C  0.84455163  0.53507413  0.59866024    -0.13420
C2759       C  0.81841810  0.51499454  0.60115032     0.08730
C2760       C  0.81340530  0.99055792  0.57970834    -0.13420
H2761       H  0.83290325  0.96499451  0.54223519     0.12720
H2762       H  0.88740130  0.04494818  0.57593082     0.12720
H2763       H  0.84904664  0.55369324  0.61528364     0.12720
H2764       H  0.79371220  0.97434712  0.58186048     0.12720
C2765       C  0.48845347  0.91183956  0.61596180    -0.13420
C2766       C  0.50959900  0.91390883  0.59227490     0.08730
C2767       C  0.52592871  0.88714219  0.58319730    -0.13420
C2768       C  0.52079903  0.85873443  0.59752246    -0.13420
C2769       C  0.49917391  0.85664666  0.62102013     0.08730
C2770       C  0.48334824  0.88369778  0.63016253    -0.13420
H2771       H  0.47592644  0.93207516  0.62375754     0.12720
H2772       H  0.54239831  0.88809441  0.56484231     0.12720
H2773       H  0.03359815  0.83845181  0.59021905     0.12720
H2774       H  0.46730653  0.88364523  0.64878879     0.12720
C2775       C  0.96196393  0.62092240  0.87234186    -0.13420
C2776       C  0.98766973  0.60043128  0.87661780     0.08730
C2777       C  0.01833097  0.61006131  0.86883978    -0.13420
C2778       C  0.02302784  0.63903721  0.85591808    -0.13420
C2779       C  0.99708634  0.65885890  0.84986642     0.08730
C2780       C  0.96657566  0.64982199  0.85891365    -0.13420
H2781       H  0.93813106  0.61423310  0.87860440     0.12720
H2782       H  0.53877333  0.59522137  0.87266771     0.12720
H2783       H  0.54694980  0.64547962  0.84981052     0.12720
H2784       H  0.94608188  0.66450377  0.85454393     0.12720
C2785       C  0.66319461  0.60632355  0.64757500    -0.13340
C2786       C  0.64558108  0.62120769  0.63068903    -0.14900
C2787       C  0.58177024  0.67260390  0.63656302    -0.13340
C2788       C  0.60130500  0.65691176  0.62399223    -0.14900
C2789       C  0.66155508  0.67518468  0.57542689    -0.13340
C2790       C  0.64523686  0.65857115  0.59052742    -0.14900
C2791       C  0.60789257  0.61569522  0.58720981    -0.13340
C2792       C  0.59242811  0.59781983  0.57053896    -0.14900
C2793       C  0.88794928  0.89788140  0.87678445    -0.13340
C2794       C  0.90358094  0.91544792  0.89368588    -0.14900
C2795       C  0.85046878  0.85521507  0.87404171    -0.13340
C2796       C  0.83467984  0.83844144  0.88945071    -0.14900
C2797       C  0.83163990  0.90705914  0.81675008    -0.13340
C2798       C  0.84964212  0.89233254  0.83350797    -0.14900
C2799       C  0.91319157  0.83969597  0.82835217    -0.13340
C2800       C  0.89387471  0.85617274  0.84030973    -0.14900
loop_ 
_geom_bond_atom_site_label_1 
_geom_bond_atom_site_label_2 
_geom_bond_distance 
_geom_bond_site_symmetry_2 
_ccdc_geom_bond_type 
C1          C343   1.479       .  S
C1          C345   1.471       .  S
C1          C348   1.484       .  S
C1          C350   1.479       .  S
C2          C336   1.479       .  S
C2          C338   1.478       .  S
C2          C340   1.472       .  S
C2          C341   1.477       .  S
C3           N21   1.354       .  A
C3           C40   1.446       .  S
C3          C286   1.456       .  S
N4           N21   1.328       .  A
N4           N26   1.319       .  A
N4         Co741   2.089       .  S
C5           N30   1.341       .  A
C5           C43   1.455       .  S
C5         H1450   1.082       .  S
H6           C47   1.081       .  S
C7           N31   1.349       .  A
C7          C361   1.469       .  S
C7           H36   1.081       .  S
Co8          N26   2.066       .  S
Co8         N366   2.073       .  S
Co8         N748   2.080       .  S
Co8        N1074   2.095       .  S
Co8       Cl2152   2.454   1_455  S
N9           C47   1.344       .  A
N9         N1416   1.318       .  A
N9          Co10   2.092       .  S
Co10         N13   2.073       .  S
Co10       N2130   2.086       .  S
Co10        N717   2.094       .  S
Co10      Cl1102   2.443   1_554  S
C11          N49   1.345       .  A
C11         C306   1.475       .  S
C11         C357   1.469       .  S
N12          N19   1.321       .  A
N12          N42   1.329       .  A
N12        Co745   2.096       .  S
N13          N49   1.317       .  A
N13         N381   1.320       .  A
N14          C43   1.353       .  A
N14          N24   1.329       .  A
H15          C40   1.081       .  S
N16          N37   1.323       .  A
N16        N1409   1.318       .  A
N16        Co358   2.073       .  S
N17          N22   1.329       .  A
N17         N385   1.320   1_554  A
N17        Co710   2.094       .  S
C18          N22   1.355   1_556  A
C18          C46   1.444       .  S
C18         C276   1.458       .  S
N19          C34   1.341       .  A
N19       Co2141   2.094       .  S
C20          N48   1.344       .  A
C20          C23   1.461       .  S
C20          H54   1.081       .  S
C23          N44   1.347       .  A
C23         C296   1.466       .  S
N24          N30   1.320       .  A
N24       Co1058   2.095   1_545  S
N25          C51   1.344       .  A
N25          N27   1.318       .  A
N25       Co1441   2.088   1_545  S
N26          C40   1.329       .  A
N27          N55   1.324       .  A
N27         Co45   2.083       .  S
H28          C51   1.080       .  S
H29         C396   1.081       .  S
N30       Co2110   2.086   1_455  S
N31         N363   1.320       .  A
N31        Co745   2.097       .  S
N32          N44   1.320       .  A
N32          N48   1.320       .  A
N32         Co41   2.083   1_545  S
C33          N37   1.345       .  A
C33         C316   1.479       .  S
C33        C1447   1.467   1_455  S
C34          C53   1.455       .  S
C34          H38   1.082       .  S
N35         C396   1.329       .  A
N35         N367   1.320       .  A
N35         Co45   2.063       .  S
C39          N55   1.346       .  A
C39          C51   1.465       .  S
C39         C326   1.481       .  S
Co41        N704   2.089       .  S
Co41       N2119   2.094   1_455  S
Co41       N1425   2.088   1_465  S
Co41      Cl1452   2.445   1_465  S
N42          C53   1.353       .  A
C43         C342   1.446       .  S
Co45        N712   2.096   1_545  S
Co45        N731   2.097       .  S
Co45        Cl52   2.457       .  S
C46         N385   1.329       .  A
C46         H379   1.081       .  S
C47        C1433   1.467       .  S
N48        Co708   2.080   1_545  S
H50        C1405   1.082       .  S
Cl52      Co2108   2.454   1_545  S
Cl52      Co1060   2.443       .  S
Cl52      Co1441   2.445   1_545  S
C53         C344   1.448       .  S
C56          N74   1.348       .  A
C56          C93   1.456       .  S
C56         C279   1.464       .  S
N57          N74   1.324       .  A
N57          N79   1.320       .  A
N57         Co94   2.071       .  S
C58          N83   1.341       .  A
C58          C96   1.456       .  S
C58         H103   1.081       .  S
H59         C100   1.079       .  S
C60          N84   1.348       .  A
C60          C64   1.468       .  S
C60          H89   1.081       .  S
Co61         N79   2.073       .  S
Co61         N69   2.095       .  S
Co61        N451   2.088       .  S
Co61        N427   2.098       .  S
Co61       Cl105   2.447       .  S
N62         C100   1.336       .  A
N62          N69   1.317       .  A
N62         Co63   2.074       .  S
Co63         N66   2.059       .  S
Co63         N70   2.072       .  S
Co63        N433   2.073       .  S
Co63       Cl105   2.444       .  S
C64         N102   1.338       .  A
C64         C256   1.464       .  S
N65          N72   1.319       .  A
N65          N95   1.326       .  A
N65         Co98   2.092       .  S
N66          N84   1.320       .  A
N66         N102   1.313       .  A
N67          C96   1.351       .  A
N67          N77   1.327       .  A
H68          C93   1.082       .  S
N69          N90   1.329       .  A
N70          N88   1.320       .  A
N70         N425   1.324       .  A
C71          N75   1.349       .  A
C71          C99   1.455       .  S
C71         C639   1.465       .  S
N72          C87   1.341       .  A
N72         Co94   2.077       .  S
C73         N101   1.347       .  A
C73          C76   1.466       .  S
C73         H107   1.081       .  S
N75         N420   1.324       .  A
C76          N97   1.339       .  A
C76         C266   1.464       .  S
N77          N83   1.319       .  A
N77        Co411   2.098       .  S
N78         C104   1.336       .  A
N78         N430   1.317       .  A
N78        Co444   2.074   1_554  S
N79          C93   1.333       .  A
N80         N428   1.317       .  A
N80         N458   1.328       .  A
N80         Co98   2.093       .  S
H81         C104   1.079       .  S
H82          C99   1.082       .  S
N83        Co413   2.073   1_554  S
N84         Co98   2.090       .  S
N85          N97   1.314       .  A
N85         N101   1.320       .  A
N85        Co444   2.064   1_554  S
C86          N90   1.357       .  A
C86         C100   1.453       .  S
C86         C246   1.483       .  S
C87         C106   1.457       .  S
C87          H91   1.081       .  S
N88         C449   1.332       .  A
N88         Co98   2.069       .  S
C92         N108   1.356       .  A
C92         C104   1.454       .  S
C92         C236   1.482       .  S
Co94        N428   2.074       .  S
Co94        N435   2.064       .  S
Co94       Cl105   2.444       .  S
N95         C106   1.349       .  A
C96         C339   1.441       .  S
Co98       Cl105   2.446       .  S
C99         N438   1.332       .  A
N101       Co411   2.088       .  S
C106        C346   1.440       .  S
N108        N430   1.328       .  A
C109        N127   1.352       .  A
C109        C146   1.454       .  S
C109        C259   1.467       .  S
N110        N127   1.322       .  A
N110        N132   1.317       .  A
N110       Co147   2.077       .  S
C111        N136   1.331       .  A
C111       C1549   1.458       .  S
C111        H156   1.080       .  S
H112        C153   1.081       .  S
C113        N137   1.346       .  A
C113        C117   1.466       .  S
C113        H142   1.082       .  S
Co114       N132   2.065       .  S
Co114       N122   2.063       .  S
Co114       N154   2.096       .  S
Co114       N130   2.097       .  S
Co114     Cl1558   2.454   1_455  S
N115        C153   1.348       .  A
N115        N122   1.319       .  A
N115      Co1516   2.095   1_455  S
Co116       N119   2.081       .  S
Co116       N136   2.069       .  S
Co116       N123   2.079       .  S
Co116      N1515   2.095       .  S
Co116      Cl158   2.439       .  S
C117        N155   1.346       .  A
C117        C349   1.448       .  S
N118        N125   1.321       .  A
N118        N148   1.328       .  A
N118       Co151   2.092       .  S
N119        N137   1.322       .  A
N119        N155   1.324       .  A
N120        C149   1.358   1_455  A
N120        N130   1.329       .  A
H121        C146   1.081       .  S
N122        N143   1.315       .  A
N123        N141   1.317       .  A
N123        N128   1.321       .  A
C124        N128   1.351       .  A
C124        C152   1.455       .  S
C124        C269   1.467       .  S
N125       C1540   1.335       .  A
N125      Co1547   2.080       .  S
C126        N154   1.345       .  A
C126        C129   1.463       .  S
C126        H160   1.082       .  S
C129        N150   1.348       .  A
C129        C337   1.447       .  S
N130       N1536   1.319   1_455  A
N131        C157   1.344       .  A
N131        N133   1.319       .  A
N131      Co1547   2.084       .  S
N132        C146   1.337       .  A
N133        N161   1.318       .  A
N133       Co151   2.075       .  S
H134        C157   1.082       .  S
H135        C152   1.081       .  S
N136       N1530   1.319       .  A
N137       Co151   2.103       .  S
N138        N150   1.325       .  A
N138        N154   1.322       .  A
N138       Co147   2.089       .  S
C139        N143   1.343       .  A
C139        C153   1.471       .  S
C139        C229   1.474       .  S
C140       N1525   1.335       .  A
C140       C1559   1.459       .  S
C140        H144   1.081       .  S
N141        C152   1.338       .  A
N141       Co151   2.064       .  S
C145        N161   1.346       .  A
C145        C157   1.465       .  S
C145        C216   1.464       .  S
Co147      N1525   2.080       .  S
Co147      N1531   2.084   1_455  S
Co147     Cl1558   2.442   1_455  S
N148        C159   1.356       .  A
C149        C319   1.487       .  S
C149       C1511   1.458       .  S
Co151      Cl158   2.455       .  S
Cl158     Co1514   2.454       .  S
Cl158     Co1547   2.442       .  S
C159        C329   1.485       .  S
C159       C1540   1.459       .  S
C162        N180   1.356       .  A
C162        C199   1.452       .  S
C162        C299   1.476       .  S
N163        N180   1.330       .  A
N163        N185   1.320       .  A
N163       Co900   2.100       .  S
C164        N189   1.341       .  A
C164        C202   1.456       .  S
C164        H209   1.082       .  S
H165        C206   1.082       .  S
C166        N190   1.343       .  A
C166        C170   1.470       .  S
C166        H195   1.081       .  S
Co167       N207   2.093       .  S
Co167       N183   2.096       .  S
Co167       N885   2.066       .  S
Co167       N875   2.073       .  S
Co167      Cl911   2.450       .  S
N168        C206   1.338       .  A
N168        N175   1.318       .  A
N168       Co169   2.081       .  S
Co169       N172   2.078       .  S
Co169       N889   2.090       .  S
Co169       N876   2.089       .  S
Co169      Cl211   2.449       .  S
C170        N208   1.347       .  A
C170        C239   1.485       .  S
N171        N178   1.322       .  A
N171        N201   1.329       .  A
N171       Co204   2.105       .  S
N172        N190   1.321       .  A
N172        N208   1.321       .  A
N173        C202   1.353       .  A
N173        N183   1.329       .  A
H174        C199   1.081       .  S
N175        N196   1.324       .  A
N175       Co867   2.073       .  S
N176        N194   1.321       .  A
N176        N181   1.328       .  A
N176       Co869   2.089   1_545  S
C177        N181   1.352       .  A
C177        C205   1.452       .  S
C177        C309   1.467       .  S
N178        C193   1.342       .  A
N178       Co900   2.092       .  S
C179        N207   1.345       .  A
C179        C182   1.472       .  S
C179        H213   1.081       .  S
C182        N203   1.346       .  A
C182        C249   1.485       .  S
N183        N189   1.321       .  A
N184        C210   1.339       .  A
N184        N186   1.319       .  A
N184       Co200   2.081       .  S
N185        C199   1.329       .  A
N185       Co867   2.066       .  S
N186        N214   1.324       .  A
N186       Co904   2.072   1_545  S
H187        C210   1.082       .  S
H188        C205   1.081   1_565  S
N189       Co869   2.090   1_545  S
N190       Co204   2.089       .  S
N191        N203   1.320       .  A
N191        N207   1.321       .  A
N191       Co200   2.076       .  S
C192        N196   1.346       .  A
C192        C206   1.462       .  S
C192        C226   1.465       .  S
C193        C212   1.458       .  S
C193        H197   1.082       .  S
N194        C205   1.335       .  A
N194       Co904   2.079   1_545  S
C198        N214   1.347       .  A
C198        C210   1.462       .  S
C198        C219   1.471       .  S
Co200       N863   2.100       .  S
Co200       N878   2.092   1_545  S
Co200      Cl911   2.452       .  S
N201        C212   1.354       .  A
C202        C335   1.448       .  S
Co204       N886   2.072       .  S
Co204       N894   2.079       .  S
Co204      Cl211   2.450       .  S
Cl211      Co867   2.450       .  S
Cl211      Co900   2.452       .  S
C212        C347   1.452       .  S
C215        H221   1.084       .  S
C215        C216   1.402       .  A
C215        C220   1.391       .  A
C216        C217   1.400       .  A
C217        H222   1.083       .  S
C217        C218   1.402       .  A
C218        H223   1.083       .  S
C218        C219   1.408       .  A
C219        C220   1.400       .  A
C220        H224   1.083       .  S
C225        H231   1.083       .  S
C225        C226   1.404       .  A
C225        C230   1.404       .  A
C226        C227   1.397       .  A
C227        H232   1.083       .  S
C227        C228   1.388       .  A
C228        H233   1.084       .  S
C228        C229   1.406       .  A
C229        C230   1.405       .  A
C230        H234   1.082       .  S
C235        H241   1.082       .  S
C235        C236   1.408       .  A
C235        C240   1.398       .  A
C236        C237   1.402       .  A
C237        H242   1.082       .  S
C237        C238   1.400       .  A
C238        H243   1.083       .  S
C238        C239   1.408       .  A
C239        C240   1.404       .  A
C240        H244   1.081       .  S
C245        H251   1.082       .  S
C245        C246   1.402       .  A
C245        C250   1.400       .  A
C246        C247   1.408       .  A
C247        H252   1.082       .  S
C247        C248   1.399       .  A
C248        H253   1.081       .  S
C248        C249   1.404       .  A
C249        C250   1.409       .  A
C250        H254   1.083       .  S
C255        H261   1.083       .  S
C255        C256   1.405       .  A
C255        C260   1.386       .  A
C256        C257   1.400       .  A
C257        H262   1.083       .  S
C257        C258   1.400       .  A
C258        H263   1.082       .  S
C258        C259   1.409       .  A
C259        C260   1.398       .  A
C260        H264   1.084       .  S
C265        H271   1.083       .  S
C265        C266   1.404       .  A
C265        C270   1.387       .  A
C266        C267   1.400       .  A
C267        H272   1.083       .  S
C267        C268   1.400       .  A
C268        H273   1.082       .  S
C268        C269   1.408       .  A
C269        C270   1.398       .  A
C270        H274   1.084       .  S
C275        H281   1.084       .  S
C275        C276   1.398   1_554  A
C275        C630   1.394       .  A
C276        C627   1.406       .  A
C277        H282   1.084       .  S
C277        C278   1.396       .  A
C277        C626   1.406       .  A
C278        H283   1.083       .  S
C278        C279   1.397       .  A
C279        C280   1.407       .  A
C280        H634   1.083       .  S
C280        C625   1.394       .  A
H284        C630   1.083       .  S
C285        H291   1.084       .  S
C285        C286   1.398       .  A
C285        C640   1.392       .  A
C286        C287   1.405       .  A
C287        H292   1.083       .  S
C287        C288   1.396       .  A
C288        H293   1.083       .  S
C288        C289   1.397       .  A
C289        C421   1.465       .  S
C289        C640   1.407       .  A
C290        H294   1.083       .  S
C290        C635   1.392       .  A
C290        C639   1.407       .  A
C295        H301   1.083       .  S
C295        C296   1.407   1_565  A
C295       C1000   1.405       .  A
C296        C297   1.397       .  A
C297        H302   1.084       .  S
C297        C298   1.391       .  A
C298        H303   1.083       .  S
C298        C999   1.407       .  A
C299        C300   1.402       .  A
C299        C998   1.407       .  A
C300        H304   1.083       .  S
C300        C995   1.405       .  A
C305        H311   1.083       .  S
C305        C306   1.403       .  A
C305        C310   1.407       .  A
C306        C307   1.406       .  A
C307        H312   1.083       .  S
C307       C1008   1.391       .  A
C308        H313   1.084       .  S
C308        C309   1.397       .  A
C308       C1007   1.391       .  A
C309       C1010   1.408   1_545  A
C310        H314   1.083       .  S
C310       C1009   1.408       .  A
C315        H321   1.083       .  S
C315        C316   1.397   1_655  A
C315        C320   1.392       .  A
C316        C317   1.410       .  A
C317        H322   1.083       .  S
C317        C318   1.405       .  A
C318       H1723   1.083       .  S
C318        C319   1.404   1_455  A
C319        C320   1.411       .  A
C320        H324   1.080       .  S
H323       C1718   1.083       .  S
C325        H331   1.083       .  S
C325        C326   1.407       .  A
C325        C330   1.403       .  A
C326        C327   1.402       .  A
C327       H1732   1.082       .  S
C327        C328   1.397       .  A
C328       H1733   1.082       .  S
C328        C329   1.407       .  A
C329        C330   1.406       .  A
C330        H334   1.083       .  S
H332       C1727   1.082       .  S
H333       C1728   1.082       .  S
C335        C336   1.214       .  T
C337        C338   1.213       .  T
C339        C340   1.210       .  T
C341        C342   1.213       .  T
C343        C344   1.214       .  T
C345        C346   1.209       .  T
C347        C348   1.216       .  T
C349        C350   1.214       .  T
C351        C693   1.479       .  S
C351        C695   1.471       .  S
C351        C698   1.484       .  S
C351        C700   1.479       .  S
C352        C686   1.479       .  S
C352        C688   1.478       .  S
C352        C690   1.472       .  S
C352        C691   1.477       .  S
C353        N371   1.354       .  A
C353        C390   1.446       .  S
C353        C636   1.456       .  S
N354        N371   1.328       .  A
N354        N376   1.319       .  A
N354      Co1091   2.089       .  S
C355        N380   1.341       .  A
C355        C393   1.455       .  S
C355       H1800   1.082       .  S
H356        C397   1.081       .  S
C357        N381   1.349       .  A
C357        H386   1.081   1_554  S
Co358       N376   2.066   1_554  S
Co358      N1098   2.080   1_554  S
Co358       N724   2.095       .  S
Co358     Cl2502   2.454   1_454  S
N359        C397   1.344       .  A
N359       N1766   1.318       .  A
N359       Co360   2.092       .  S
Co360       N363   2.073       .  S
Co360      N2480   2.086       .  S
Co360      N1067   2.094       .  S
Co360      Cl752   2.443       .  S
C361        N399   1.345       .  A
C361        C656   1.475       .  S
N362        N369   1.321       .  A
N362        N392   1.329       .  A
N362      Co1095   2.096       .  S
N363        N399   1.317       .  A
N364        C393   1.353       .  A
N364        N374   1.329       .  A
H365        C390   1.081   1_554  S
N366       N1759   1.318       .  A
N366        N387   1.323       .  A
N367        N372   1.329       .  A
N367      Co1060   2.094       .  S
C368        N372   1.355       .  A
C368        C396   1.444       .  S
C368        C626   1.458       .  S
N369        C384   1.341       .  A
N369      Co2491   2.094       .  S
C370        N398   1.344       .  A
C370        C373   1.461       .  S
C370        H404   1.081       .  S
C373        N394   1.347       .  A
C373        C646   1.466       .  S
N374        N380   1.320       .  A
N374       Co708   2.095   1_545  S
N375        C401   1.344       .  A
N375        N377   1.318       .  A
N375      Co1791   2.088   1_545  S
N376        C390   1.329       .  A
N377        N405   1.324       .  A
N377       Co395   2.083       .  S
H378        C401   1.080       .  S
N380      Co2460   2.086   1_455  S
N381      Co1095   2.097   1_554  S
N382        N394   1.320       .  A
N382        N398   1.320       .  A
N382       Co391   2.083   1_545  S
C383        N387   1.345       .  A
C383       C1797   1.467   1_455  S
C383        C666   1.479       .  S
C384        C403   1.455       .  S
C384        H388   1.082       .  S
N385       Co395   2.063       .  S
C389        N405   1.346       .  A
C389        C401   1.465       .  S
C389        C676   1.481       .  S
Co391      N1054   2.089       .  S
Co391      N2469   2.094   1_455  S
Co391      N1775   2.088   1_465  S
Co391     Cl1802   2.445   1_465  S
N392        C403   1.353       .  A
C393        C692   1.446       .  S
Co395      N1062   2.096   1_545  S
Co395      N1081   2.097   1_556  S
Co395      Cl402   2.457       .  S
C397       C1783   1.467       .  S
N398      Co1058   2.080   1_546  S
H400       C1755   1.082       .  S
Cl402     Co2458   2.454   1_546  S
Cl402      Co710   2.443   1_556  S
Cl402     Co1791   2.445   1_545  S
C403        C694   1.448       .  S
C406        N424   1.348       .  A
C406        C443   1.456       .  S
C406        C629   1.464       .  S
N407        N424   1.324       .  A
N407        N429   1.320       .  A
N407       Co444   2.071       .  S
C408        N433   1.341       .  A
C408        C446   1.456       .  S
C408        H453   1.081       .  S
H409        C450   1.079       .  S
C410        N434   1.348       .  A
C410        C414   1.468       .  S
C410        H439   1.081       .  S
Co411       N429   2.073   1_554  S
Co411       N419   2.095   1_554  S
Co411      Cl455   2.447   1_554  S
N412        C450   1.336       .  A
N412        N419   1.317       .  A
N412       Co413   2.074       .  S
Co413       N416   2.059       .  S
Co413       N420   2.072       .  S
Co413      Cl455   2.444       .  S
C414        N452   1.338       .  A
C414        C606   1.464       .  S
N415        N422   1.319       .  A
N415        N445   1.326       .  A
N415       Co448   2.092       .  S
N416        N434   1.320       .  A
N416        N452   1.313       .  A
N417        C446   1.351       .  A
N417        N427   1.327       .  A
H418        C443   1.082       .  S
N419        N440   1.329       .  A
N420        N438   1.320       .  A
C421        N425   1.349       .  A
C421        C449   1.455       .  S
N422        C437   1.341       .  A
N422       Co444   2.077       .  S
C423        N451   1.347       .  A
C423        C426   1.466       .  S
C423        H457   1.081       .  S
C426        N447   1.339       .  A
C426        C616   1.464       .  S
N427        N433   1.319       .  A
N428        C454   1.336       .  A
N429        C443   1.333       .  A
N430       Co448   2.093   1_554  S
H431        C454   1.079       .  S
H432        C449   1.082       .  S
N434       Co448   2.090       .  S
N435        N447   1.314       .  A
N435        N451   1.320       .  A
C436        N440   1.357       .  A
C436        C450   1.453       .  S
C436        C596   1.483       .  S
C437        C456   1.457       .  S
C437        H441   1.081       .  S
N438       Co448   2.069       .  S
C442        N458   1.356       .  A
C442        C454   1.454       .  S
C442        C586   1.482       .  S
Co444      Cl455   2.444       .  S
N445        C456   1.349       .  A
C446        C689   1.441       .  S
Co448      Cl455   2.446       .  S
C456        C696   1.440       .  S
C459        N477   1.352       .  A
C459        C496   1.454       .  S
C459        C609   1.467       .  S
N460        N477   1.322       .  A
N460        N482   1.317       .  A
N460       Co497   2.077       .  S
C461        N486   1.331       .  A
C461       C1899   1.458       .  S
C461        H506   1.080       .  S
H462        C503   1.081       .  S
C463        N487   1.346       .  A
C463        C467   1.466       .  S
C463        H492   1.082       .  S
Co464       N482   2.065       .  S
Co464       N472   2.063       .  S
Co464       N504   2.096       .  S
Co464       N480   2.097       .  S
Co464     Cl1908   2.454   1_455  S
N465        C503   1.348       .  A
N465        N472   1.319       .  A
N465      Co1866   2.095   1_455  S
Co466      N1865   2.095       .  S
Co466       N469   2.081       .  S
Co466       N486   2.069       .  S
Co466       N473   2.079       .  S
Co466      Cl508   2.439       .  S
C467        N505   1.346       .  A
C467        C699   1.448       .  S
N468        N475   1.321       .  A
N468        N498   1.328       .  A
N468       Co501   2.092       .  S
N469        N487   1.322       .  A
N469        N505   1.324       .  A
N470        C499   1.358   1_455  A
N470        N480   1.329       .  A
H471        C496   1.081       .  S
N472        N493   1.315       .  A
N473        N491   1.317       .  A
N473        N478   1.321       .  A
C474        N478   1.351       .  A
C474        C502   1.455       .  S
C474        C619   1.467       .  S
N475       C1890   1.335       .  A
N475      Co1897   2.080       .  S
C476        N504   1.345       .  A
C476        C479   1.463       .  S
C476        H510   1.082       .  S
C479        N500   1.348       .  A
C479        C687   1.447       .  S
N480       N1886   1.319   1_455  A
N481        C507   1.344       .  A
N481        N483   1.319       .  A
N481      Co1897   2.084       .  S
N482        C496   1.337       .  A
N483        N511   1.318       .  A
N483       Co501   2.075       .  S
H484        C507   1.082       .  S
H485        C502   1.081       .  S
N486       N1880   1.319       .  A
N487       Co501   2.103       .  S
N488        N500   1.325       .  A
N488        N504   1.322       .  A
N488       Co497   2.089       .  S
C489        N493   1.343       .  A
C489        C503   1.471       .  S
C489        C579   1.474       .  S
C490       N1875   1.335       .  A
C490       C1909   1.459       .  S
C490        H494   1.081       .  S
N491        C502   1.338       .  A
N491       Co501   2.064       .  S
C495        N511   1.346       .  A
C495        C507   1.465       .  S
C495        C566   1.464       .  S
Co497      N1875   2.080       .  S
Co497      N1881   2.084   1_455  S
Co497     Cl1908   2.442   1_455  S
N498        C509   1.356       .  A
C499       C1861   1.458       .  S
C499        C669   1.487       .  S
Co501      Cl508   2.455       .  S
Cl508     Co1864   2.454       .  S
Cl508     Co1897   2.442       .  S
C509       C1890   1.459       .  S
C509        C679   1.485       .  S
C512        N530   1.356       .  A
C512        C549   1.452       .  S
C512        C649   1.476       .  S
N513        N530   1.330       .  A
N513        N535   1.320       .  A
N513      Co1250   2.100       .  S
C514        N539   1.341       .  A
C514        C552   1.456       .  S
C514        H559   1.082       .  S
H515        C556   1.082       .  S
C516        N540   1.343       .  A
C516        C520   1.470       .  S
C516        H545   1.081       .  S
Co517      N1235   2.066       .  S
Co517      N1225   2.073       .  S
Co517       N557   2.093       .  S
Co517       N533   2.096       .  S
Co517     Cl1261   2.450       .  S
N518        C556   1.338       .  A
N518        N525   1.318       .  A
N518       Co519   2.081       .  S
Co519       N522   2.078       .  S
Co519      N1239   2.090       .  S
Co519      N1226   2.089       .  S
Co519      Cl561   2.449       .  S
C520        N558   1.347       .  A
C520        C589   1.485       .  S
N521        N528   1.322       .  A
N521        N551   1.329       .  A
N521       Co554   2.105       .  S
N522        N540   1.321       .  A
N522        N558   1.321       .  A
N523        C552   1.353       .  A
N523        N533   1.329       .  A
H524        C549   1.081       .  S
N525        N546   1.324       .  A
N525      Co1217   2.073       .  S
N526        N544   1.321       .  A
N526        N531   1.328       .  A
N526      Co1219   2.089   1_545  S
C527        N531   1.352       .  A
C527        C555   1.452       .  S
C527        C659   1.467       .  S
N528        C543   1.342       .  A
N528      Co1250   2.092       .  S
C529        N557   1.345       .  A
C529        C532   1.472       .  S
C529        H563   1.081       .  S
C532        N553   1.346       .  A
C532        C599   1.485       .  S
N533        N539   1.321       .  A
N534        C560   1.339       .  A
N534        N536   1.319       .  A
N534       Co550   2.081       .  S
N535        C549   1.329       .  A
N535      Co1217   2.066       .  S
N536        N564   1.324       .  A
N536      Co1254   2.072   1_545  S
H537        C560   1.082       .  S
H538        C555   1.081   1_565  S
N539      Co1219   2.090   1_545  S
N540       Co554   2.089       .  S
N541        N553   1.320       .  A
N541        N557   1.321       .  A
N541       Co550   2.076       .  S
C542        N546   1.346       .  A
C542        C556   1.462       .  S
C542        C576   1.465       .  S
C543        C562   1.458       .  S
C543        H547   1.082       .  S
N544        C555   1.335       .  A
N544      Co1254   2.079   1_545  S
C548        N564   1.347       .  A
C548        C560   1.462       .  S
C548        C569   1.471       .  S
Co550      N1213   2.100       .  S
Co550      N1228   2.092   1_545  S
Co550     Cl1261   2.452       .  S
N551        C562   1.354       .  A
C552        C685   1.448       .  S
Co554      N1236   2.072       .  S
Co554      N1244   2.079       .  S
Co554      Cl561   2.450       .  S
Cl561     Co1217   2.450       .  S
Cl561     Co1250   2.452       .  S
C562        C697   1.452       .  S
C565        H571   1.084       .  S
C565        C566   1.402       .  A
C565        C570   1.391       .  A
C566        C567   1.400       .  A
C567        H572   1.083       .  S
C567        C568   1.402       .  A
C568        H573   1.083       .  S
C568        C569   1.408       .  A
C569        C570   1.400       .  A
C570        H574   1.083       .  S
C575        H581   1.083       .  S
C575        C576   1.404       .  A
C575        C580   1.404       .  A
C576        C577   1.397       .  A
C577        H582   1.083       .  S
C577        C578   1.388       .  A
C578        H583   1.084       .  S
C578        C579   1.406       .  A
C579        C580   1.405       .  A
C580        H584   1.082       .  S
C585        H591   1.082       .  S
C585        C586   1.408       .  A
C585        C590   1.398       .  A
C586        C587   1.402       .  A
C587        H592   1.082       .  S
C587        C588   1.400       .  A
C588        H593   1.083       .  S
C588        C589   1.408       .  A
C589        C590   1.404       .  A
C590        H594   1.081       .  S
C595        H601   1.082       .  S
C595        C596   1.402       .  A
C595        C600   1.400       .  A
C596        C597   1.408       .  A
C597        H602   1.082       .  S
C597        C598   1.399       .  A
C598        H603   1.081       .  S
C598        C599   1.404       .  A
C599        C600   1.409       .  A
C600        H604   1.083       .  S
C605        H611   1.083       .  S
C605        C606   1.405       .  A
C605        C610   1.386       .  A
C606        C607   1.400       .  A
C607        H612   1.083       .  S
C607        C608   1.400       .  A
C608        H613   1.082       .  S
C608        C609   1.409       .  A
C609        C610   1.398       .  A
C610        H614   1.084       .  S
C615        H621   1.083       .  S
C615        C616   1.404       .  A
C615        C620   1.387       .  A
C616        C617   1.400       .  A
C617        H622   1.083       .  S
C617        C618   1.400       .  A
C618        H623   1.082       .  S
C618        C619   1.408       .  A
C619        C620   1.398       .  A
C620        H624   1.084       .  S
C625        H631   1.084       .  S
C625        C626   1.398       .  A
C627        H632   1.084       .  S
C627        C628   1.396       .  A
C628        H633   1.083       .  S
C628        C629   1.397       .  A
C629        C630   1.407   1_556  A
C635        H641   1.084       .  S
C635        C636   1.398       .  A
C636        C637   1.405       .  A
C637        H642   1.083   1_556  S
C637        C638   1.396       .  A
C638        H643   1.083   1_556  S
C638        C639   1.397       .  A
C640        H644   1.083       .  S
C645        H651   1.083       .  S
C645        C646   1.407   1_565  A
C645       C1350   1.405       .  A
C646        C647   1.397       .  A
C647        H652   1.084       .  S
C647        C648   1.391       .  A
C648        H653   1.083       .  S
C648       C1349   1.407       .  A
C649       C1348   1.407       .  A
C649        C650   1.402       .  A
C650        H654   1.083       .  S
C650       C1345   1.405       .  A
C655        H661   1.083       .  S
C655        C656   1.403       .  A
C655        C660   1.407       .  A
C656        C657   1.406       .  A
C657        H662   1.083       .  S
C657       C1358   1.391       .  A
C658        H663   1.084       .  S
C658       C1357   1.391       .  A
C658        C659   1.397       .  A
C659       C1360   1.408   1_545  A
C660        H664   1.083       .  S
C660       C1359   1.408       .  A
C665        H671   1.083       .  S
C665        C666   1.397   1_655  A
C665        C670   1.392       .  A
C666        C667   1.410       .  A
C667        H672   1.083       .  S
C667        C668   1.405       .  A
C668       H2073   1.083       .  S
C668        C669   1.404   1_455  A
C669        C670   1.411       .  A
C670        H674   1.080       .  S
H673       C2068   1.083       .  S
C675        H681   1.083       .  S
C675        C676   1.407       .  A
C675        C680   1.403       .  A
C676        C677   1.402       .  A
C677       H2082   1.082       .  S
C677        C678   1.397       .  A
C678       H2083   1.082       .  S
C678        C679   1.407       .  A
C679        C680   1.406       .  A
C680        H684   1.083       .  S
H682       C2077   1.082       .  S
H683       C2078   1.082       .  S
C685        C686   1.214       .  T
C687        C688   1.213       .  T
C689        C690   1.210       .  T
C691        C692   1.213       .  T
C693        C694   1.214       .  T
C695        C696   1.209       .  T
C697        C698   1.216       .  T
C699        C700   1.214       .  T
C701       C1043   1.479       .  S
C701       C1045   1.471       .  S
C701       C1048   1.484       .  S
C701       C1050   1.479       .  S
C702       C1036   1.479       .  S
C702       C1038   1.478       .  S
C702       C1040   1.472       .  S
C702       C1041   1.477       .  S
C703        N721   1.354       .  A
C703        C740   1.446       .  S
C703        C986   1.456       .  S
N704        N721   1.328       .  A
N704        N726   1.319       .  A
C705        N730   1.341       .  A
C705        C743   1.455       .  S
C705       H2150   1.082       .  S
H706        C747   1.081       .  S
C707        N731   1.349   1_565  A
C707       C1061   1.469       .  S
C707        H736   1.081       .  S
Co708       N726   2.066       .  S
Co708      N1066   2.073       .  S
Co708     Cl1452   2.454   1_465  S
N709        C747   1.344       .  A
N709       N2116   1.318       .  A
N709       Co710   2.092   1_565  S
Co710       N713   2.073       .  S
Co710      N1430   2.086       .  S
C711        N749   1.345   1_565  A
C711       C1057   1.469       .  S
C711       C1006   1.475   1_565  S
N712        N719   1.321       .  A
N712        N742   1.329       .  A
N713       N1081   1.320       .  A
N713        N749   1.317       .  A
N714        C743   1.353       .  A
N714        N724   1.329       .  A
H715        C740   1.081       .  S
N716       N2109   1.318       .  A
N716        N737   1.323       .  A
N716      Co1058   2.073       .  S
N717       N1085   1.320   1_554  A
N717        N722   1.329       .  A
C718        N722   1.355   1_556  A
C718        C746   1.444       .  S
C718        C976   1.458       .  S
N719        C734   1.341       .  A
N719      Co1441   2.094       .  S
C720        N748   1.344       .  A
C720        C723   1.461       .  S
C720        H754   1.081       .  S
C723        N744   1.347       .  A
C723        C996   1.466       .  S
N724        N730   1.320       .  A
N725        C751   1.344       .  A
N725        N727   1.318       .  A
N725      Co2141   2.088       .  S
N726        C740   1.329       .  A
N727        N755   1.324       .  A
N727       Co745   2.083       .  S
H728        C751   1.080       .  S
H729       C1096   1.081       .  S
N730      Co1410   2.086   1_455  S
N731       N1063   1.320       .  A
N732        N744   1.320       .  A
N732        N748   1.320       .  A
N732       Co741   2.083       .  S
C733        N737   1.345       .  A
C733       C2147   1.467   1_455  S
C733       C1016   1.479       .  S
C734        C753   1.455       .  S
C734        H738   1.082       .  S
N735       C1096   1.329       .  A
N735       N1067   1.320       .  A
N735       Co745   2.063       .  S
C739        N755   1.346       .  A
C739        C751   1.465       .  S
C739       C1026   1.481       .  S
Co741      N1419   2.094   1_455  S
Co741      N2125   2.088   1_455  S
Co741     Cl2152   2.445   1_455  S
N742        C753   1.353       .  A
C743       C1042   1.446       .  S
Co745      Cl752   2.457       .  S
C746       N1085   1.329       .  A
C746       H1079   1.081       .  S
C747       C2133   1.467       .  S
H750       C2105   1.082       .  S
Cl752     Co1408   2.454       .  S
Cl752     Co2141   2.445       .  S
C753       C1044   1.448       .  S
C756        N774   1.348       .  A
C756        C793   1.456       .  S
C756        C979   1.464       .  S
N757        N774   1.324       .  A
N757        N779   1.320       .  A
N757       Co794   2.071       .  S
C758        N783   1.341       .  A
C758        C796   1.456       .  S
C758        H803   1.081       .  S
H759        C800   1.079       .  S
C760        N784   1.348       .  A
C760        C764   1.468       .  S
C760        H789   1.081       .  S
Co761       N779   2.073       .  S
Co761       N769   2.095       .  S
Co761      N1151   2.088       .  S
Co761      N1127   2.098       .  S
Co761      Cl805   2.447       .  S
N762        C800   1.336       .  A
N762        N769   1.317       .  A
N762       Co763   2.074       .  S
Co763       N766   2.059       .  S
Co763      N1133   2.073       .  S
Co763       N770   2.072       .  S
Co763      Cl805   2.444       .  S
C764        N802   1.338       .  A
C764        C956   1.464       .  S
N765        N772   1.319       .  A
N765        N795   1.326       .  A
N765       Co798   2.092       .  S
N766        N784   1.320       .  A
N766        N802   1.313       .  A
N767        C796   1.351       .  A
N767        N777   1.327       .  A
H768        C793   1.082       .  S
N769        N790   1.329       .  A
N770        N788   1.320       .  A
N770       N1125   1.324       .  A
C771        N775   1.349       .  A
C771        C799   1.455       .  S
C771       C1339   1.465       .  S
N772        C787   1.341       .  A
N772       Co794   2.077       .  S
C773        N801   1.347       .  A
C773        C776   1.466       .  S
C773        H807   1.081       .  S
N775       N1120   1.324       .  A
C776        N797   1.339       .  A
C776        C966   1.464       .  S
N777        N783   1.319       .  A
N777      Co1111   2.098       .  S
N778        C804   1.336       .  A
N778       N1130   1.317       .  A
N778      Co1144   2.074   1_554  S
N779        C793   1.333       .  A
N780       N1128   1.317       .  A
N780       N1158   1.328       .  A
N780       Co798   2.093       .  S
H781        C804   1.079       .  S
H782        C799   1.082       .  S
N783      Co1113   2.073   1_554  S
N784       Co798   2.090       .  S
N785        N797   1.314       .  A
N785        N801   1.320       .  A
N785      Co1144   2.064   1_554  S
C786        N790   1.357       .  A
C786        C800   1.453       .  S
C786        C946   1.483       .  S
C787        C806   1.457       .  S
C787        H791   1.081       .  S
N788       C1149   1.332       .  A
N788       Co798   2.069       .  S
C792        N808   1.356       .  A
C792        C804   1.454       .  S
C792        C936   1.482       .  S
Co794      N1128   2.074       .  S
Co794      N1135   2.064       .  S
Co794      Cl805   2.444       .  S
N795        C806   1.349       .  A
C796       C1039   1.441       .  S
Co798      Cl805   2.446       .  S
C799       N1138   1.332       .  A
N801      Co1111   2.088       .  S
C806       C1046   1.440       .  S
N808       N1130   1.328       .  A
C809        N827   1.352       .  A
C809        C846   1.454       .  S
C809        C959   1.467       .  S
N810        N827   1.322       .  A
N810        N832   1.317       .  A
N810       Co847   2.077       .  S
C811        N836   1.331       .  A
C811       C2249   1.458       .  S
C811        H856   1.080       .  S
H812        C853   1.081       .  S
C813        N837   1.346       .  A
C813        C817   1.466       .  S
C813        H842   1.082       .  S
Co814       N832   2.065       .  S
Co814       N822   2.063       .  S
Co814       N854   2.096       .  S
Co814       N830   2.097       .  S
Co814     Cl2258   2.454   1_455  S
N815        C853   1.348       .  A
N815        N822   1.319       .  A
N815      Co2216   2.095   1_455  S
Co816      N2215   2.095       .  S
Co816       N819   2.081       .  S
Co816       N836   2.069       .  S
Co816       N823   2.079       .  S
Co816      Cl858   2.439       .  S
C817        N855   1.346       .  A
C817       C1049   1.448       .  S
N818        N825   1.321       .  A
N818        N848   1.328       .  A
N818       Co851   2.092       .  S
N819        N837   1.322       .  A
N819        N855   1.324       .  A
N820        C849   1.358   1_455  A
N820        N830   1.329       .  A
H821        C846   1.081       .  S
N822        N843   1.315       .  A
N823        N841   1.317       .  A
N823        N828   1.321       .  A
C824        N828   1.351       .  A
C824        C852   1.455       .  S
C824        C969   1.467       .  S
N825       C2240   1.335       .  A
N825      Co2247   2.080       .  S
C826        N854   1.345       .  A
C826        C829   1.463       .  S
C826        H860   1.082       .  S
C829        N850   1.348       .  A
C829       C1037   1.447       .  S
N830       N2236   1.319   1_455  A
N831        C857   1.344       .  A
N831        N833   1.319       .  A
N831      Co2247   2.084       .  S
N832        C846   1.337       .  A
N833        N861   1.318       .  A
N833       Co851   2.075       .  S
H834        C857   1.082       .  S
H835        C852   1.081       .  S
N836       N2230   1.319       .  A
N837       Co851   2.103       .  S
N838        N850   1.325       .  A
N838        N854   1.322       .  A
N838       Co847   2.089       .  S
C839        N843   1.343       .  A
C839        C853   1.471       .  S
C839        C929   1.474       .  S
C840       N2225   1.335       .  A
C840       C2259   1.459       .  S
C840        H844   1.081       .  S
N841        C852   1.338       .  A
N841       Co851   2.064       .  S
C845        N861   1.346       .  A
C845        C857   1.465       .  S
C845        C916   1.464       .  S
Co847      N2225   2.080       .  S
Co847      N2231   2.084   1_455  S
Co847     Cl2258   2.442   1_455  S
N848        C859   1.356       .  A
C849       C2211   1.458       .  S
C849       C1019   1.487       .  S
Co851      Cl858   2.455       .  S
Cl858     Co2214   2.454       .  S
Cl858     Co2247   2.442       .  S
C859       C2240   1.459       .  S
C859       C1029   1.485       .  S
C862        N880   1.356       .  A
C862        C899   1.452       .  S
C862        C999   1.476       .  S
N863        N880   1.330       .  A
N863        N885   1.320       .  A
C864        N889   1.341       .  A
C864        C902   1.456       .  S
C864        H909   1.082       .  S
H865        C906   1.082       .  S
C866        N890   1.343       .  A
C866        C870   1.470       .  S
C866        H895   1.081       .  S
Co867       N907   2.093       .  S
Co867       N883   2.096       .  S
N868        C906   1.338       .  A
N868        N875   1.318   1_565  A
N868       Co869   2.081       .  S
Co869       N872   2.078       .  S
Co869      Cl911   2.449   1_565  S
C870        N908   1.347       .  A
C870        C939   1.485       .  S
N871        N878   1.322       .  A
N871        N901   1.329       .  A
N871       Co904   2.105       .  S
N872        N890   1.321       .  A
N872        N908   1.321       .  A
N873        C902   1.353       .  A
N873        N883   1.329       .  A
H874        C899   1.081       .  S
N875        N896   1.324   1_545  A
N876        N894   1.321       .  A
N876        N881   1.328       .  A
C877        N881   1.352       .  A
C877        C905   1.452       .  S
C877       C1009   1.467       .  S
N878        C893   1.342       .  A
C879        N907   1.345       .  A
C879        C882   1.472       .  S
C879        H913   1.081       .  S
C882        N903   1.346       .  A
C882        C949   1.485       .  S
N883        N889   1.321       .  A
N884        C910   1.339       .  A
N884        N886   1.319       .  A
N884       Co900   2.081       .  S
N885        C899   1.329       .  A
N886        N914   1.324       .  A
H887        C910   1.082       .  S
H888        C905   1.081       .  S
N890       Co904   2.089       .  S
N891        N903   1.320       .  A
N891        N907   1.321       .  A
N891       Co900   2.076       .  S
C892        N896   1.346       .  A
C892        C906   1.462       .  S
C892        C926   1.465       .  S
C893        C912   1.458       .  S
C893        H897   1.082       .  S
N894        C905   1.335       .  A
C898        N914   1.347       .  A
C898        C910   1.462       .  S
C898        C919   1.471       .  S
N901        C912   1.354       .  A
C902       C1035   1.448       .  S
Co904      Cl911   2.450   1_565  S
C912       C1047   1.452       .  S
C915        H921   1.084       .  S
C915        C916   1.402       .  A
C915        C920   1.391       .  A
C916        C917   1.400       .  A
C917        H922   1.083       .  S
C917        C918   1.402       .  A
C918        H923   1.083       .  S
C918        C919   1.408       .  A
C919        C920   1.400       .  A
C920        H924   1.083       .  S
C925        H931   1.083       .  S
C925        C926   1.404       .  A
C925        C930   1.404       .  A
C926        C927   1.397       .  A
C927        H932   1.083       .  S
C927        C928   1.388       .  A
C928        H933   1.084       .  S
C928        C929   1.406       .  A
C929        C930   1.405       .  A
C930        H934   1.082       .  S
C935        H941   1.082       .  S
C935        C936   1.408       .  A
C935        C940   1.398       .  A
C936        C937   1.402       .  A
C937        H942   1.082       .  S
C937        C938   1.400       .  A
C938        H943   1.083       .  S
C938        C939   1.408       .  A
C939        C940   1.404       .  A
C940        H944   1.081       .  S
C945        H951   1.082       .  S
C945        C946   1.402       .  A
C945        C950   1.400       .  A
C946        C947   1.408       .  A
C947        H952   1.082       .  S
C947        C948   1.399       .  A
C948        H953   1.081       .  S
C948        C949   1.404       .  A
C949        C950   1.409       .  A
C950        H954   1.083       .  S
C955        H961   1.083       .  S
C955        C956   1.405       .  A
C955        C960   1.386       .  A
C956        C957   1.400       .  A
C957        H962   1.083       .  S
C957        C958   1.400       .  A
C958        H963   1.082       .  S
C958        C959   1.409       .  A
C959        C960   1.398       .  A
C960        H964   1.084       .  S
C965        H971   1.083       .  S
C965        C966   1.404       .  A
C965        C970   1.387       .  A
C966        C967   1.400       .  A
C967        H972   1.083       .  S
C967        C968   1.400       .  A
C968        H973   1.082       .  S
C968        C969   1.408       .  A
C969        C970   1.398       .  A
C970        H974   1.084       .  S
C975        H981   1.084       .  S
C975        C976   1.398   1_554  A
C975       C1330   1.394       .  A
C976       C1327   1.406       .  A
C977        H982   1.084       .  S
C977       C1326   1.406       .  A
C977        C978   1.396       .  A
C978        H983   1.083       .  S
C978        C979   1.397       .  A
C979        C980   1.407       .  A
C980       H1334   1.083       .  S
C980       C1325   1.394       .  A
H984       C1330   1.083       .  S
C985        H991   1.084       .  S
C985        C986   1.398       .  A
C985       C1340   1.392       .  A
C986        C987   1.405       .  A
C987        H992   1.083       .  S
C987        C988   1.396       .  A
C988        H993   1.083       .  S
C988        C989   1.397       .  A
C989       C1121   1.465       .  S
C989       C1340   1.407       .  A
C990        H994   1.083       .  S
C990       C1335   1.392       .  A
C990       C1339   1.407       .  A
C995       H1001   1.083       .  S
C995        C996   1.407       .  A
C996        C997   1.397       .  A
C997       H1002   1.084       .  S
C997        C998   1.391       .  A
C998       H1003   1.083       .  S
C999       C1000   1.402   1_545  A
C1000      H1004   1.083       .  S
C1005      H1011   1.083       .  S
C1005      C1006   1.403   1_565  A
C1005      C1010   1.407       .  A
C1006      C1007   1.406       .  A
C1007      H1012   1.083       .  S
C1008      H1013   1.084       .  S
C1008      C1009   1.397       .  A
C1010      H1014   1.083       .  S
C1015      H1021   1.083       .  S
C1015      C1016   1.397   1_655  A
C1015      C1020   1.392       .  A
C1016      C1017   1.410       .  A
C1017      H1022   1.083       .  S
C1017      C1018   1.405       .  A
C1018      H2423   1.083       .  S
C1018      C1019   1.404   1_455  A
C1019      C1020   1.411       .  A
C1020      H1024   1.080       .  S
H1023      C2418   1.083       .  S
C1025      H1031   1.083       .  S
C1025      C1026   1.407       .  A
C1025      C1030   1.403       .  A
C1026      C1027   1.402       .  A
C1027      H2432   1.082       .  S
C1027      C1028   1.397       .  A
C1028      H2433   1.082       .  S
C1028      C1029   1.407       .  A
C1029      C1030   1.406       .  A
C1030      H1034   1.083       .  S
H1032      C2427   1.082       .  S
H1033      C2428   1.082       .  S
C1035      C1036   1.214       .  T
C1037      C1038   1.213       .  T
C1039      C1040   1.210       .  T
C1041      C1042   1.213       .  T
C1043      C1044   1.214       .  T
C1045      C1046   1.209       .  T
C1047      C1048   1.216       .  T
C1049      C1050   1.214       .  T
C1051      C1393   1.479       .  S
C1051      C1395   1.471       .  S
C1051      C1398   1.484       .  S
C1051      C1400   1.479       .  S
C1052      C1386   1.479       .  S
C1052      C1388   1.478       .  S
C1052      C1390   1.472       .  S
C1052      C1391   1.477       .  S
C1053      N1071   1.354       .  A
C1053      C1090   1.446       .  S
C1053      C1336   1.456       .  S
N1054      N1071   1.328       .  A
N1054      N1076   1.319       .  A
C1055      N1080   1.341       .  A
C1055      C1093   1.455       .  S
C1055      H2500   1.082       .  S
H1056      C1097   1.081       .  S
C1057      N1081   1.349   1_565  A
C1057      H1086   1.081   1_554  S
Co1058     N1076   2.066   1_554  S
Co1058    Cl1802   2.454   1_464  S
N1059      C1097   1.344       .  A
N1059      N2466   1.318       .  A
N1059     Co1060   2.092   1_565  S
Co1060     N1063   2.073       .  S
Co1060     N1780   2.086       .  S
C1061      N1099   1.345   1_565  A
C1061      C1356   1.475   1_565  S
N1062      N1069   1.321       .  A
N1062      N1092   1.329       .  A
N1063      N1099   1.317       .  A
N1064      C1093   1.353       .  A
N1064      N1074   1.329       .  A
H1065      C1090   1.081   1_554  S
N1066      N2459   1.318       .  A
N1066      N1087   1.323       .  A
N1067      N1072   1.329       .  A
C1068      N1072   1.355       .  A
C1068      C1096   1.444       .  S
C1068      C1326   1.458       .  S
N1069      C1084   1.341       .  A
N1069     Co1791   2.094       .  S
C1070      N1098   1.344       .  A
C1070      C1073   1.461       .  S
C1070      H1104   1.081       .  S
C1073      N1094   1.347       .  A
C1073      C1346   1.466       .  S
N1074      N1080   1.320       .  A
N1075      C1101   1.344       .  A
N1075      N1077   1.318       .  A
N1075     Co2491   2.088       .  S
N1076      C1090   1.329       .  A
N1077      N1105   1.324       .  A
N1077     Co1095   2.083       .  S
H1078      C1101   1.080       .  S
N1080     Co1760   2.086   1_455  S
N1082      N1094   1.320       .  A
N1082      N1098   1.320       .  A
N1082     Co1091   2.083       .  S
C1083      N1087   1.345       .  A
C1083      C2497   1.467   1_455  S
C1083      C1366   1.479       .  S
C1084      C1103   1.455       .  S
C1084      H1088   1.082       .  S
N1085     Co1095   2.063       .  S
C1089      N1105   1.346       .  A
C1089      C1101   1.465       .  S
C1089      C1376   1.481       .  S
Co1091     N1769   2.094   1_455  S
Co1091     N2475   2.088   1_455  S
Co1091    Cl2502   2.445   1_455  S
N1092      C1103   1.353       .  A
C1093      C1392   1.446       .  S
Co1095    Cl1102   2.457       .  S
C1097      C2483   1.467       .  S
H1100      C2455   1.082       .  S
Cl1102    Co1758   2.454   1_556  S
Cl1102    Co2491   2.445       .  S
C1103      C1394   1.448       .  S
C1106      N1124   1.348       .  A
C1106      C1143   1.456       .  S
C1106      C1329   1.464       .  S
N1107      N1124   1.324       .  A
N1107      N1129   1.320       .  A
N1107     Co1144   2.071       .  S
C1108      N1133   1.341       .  A
C1108      C1146   1.456       .  S
C1108      H1153   1.081       .  S
H1109      C1150   1.079       .  S
C1110      N1134   1.348       .  A
C1110      C1114   1.468       .  S
C1110      H1139   1.081       .  S
Co1111     N1129   2.073   1_554  S
Co1111     N1119   2.095   1_554  S
Co1111    Cl1155   2.447   1_554  S
N1112      C1150   1.336       .  A
N1112      N1119   1.317       .  A
N1112     Co1113   2.074       .  S
Co1113     N1116   2.059       .  S
Co1113     N1120   2.072       .  S
Co1113    Cl1155   2.444       .  S
C1114      N1152   1.338       .  A
C1114      C1306   1.464       .  S
N1115      N1122   1.319       .  A
N1115      N1145   1.326       .  A
N1115     Co1148   2.092       .  S
N1116      N1134   1.320       .  A
N1116      N1152   1.313       .  A
N1117      C1146   1.351       .  A
N1117      N1127   1.327       .  A
H1118      C1143   1.082       .  S
N1119      N1140   1.329       .  A
N1120      N1138   1.320       .  A
C1121      N1125   1.349       .  A
C1121      C1149   1.455       .  S
N1122      C1137   1.341       .  A
N1122     Co1144   2.077       .  S
C1123      N1151   1.347       .  A
C1123      C1126   1.466       .  S
C1123      H1157   1.081       .  S
C1126      N1147   1.339       .  A
C1126      C1316   1.464       .  S
N1127      N1133   1.319       .  A
N1128      C1154   1.336       .  A
N1129      C1143   1.333       .  A
N1130     Co1148   2.093   1_554  S
H1131      C1154   1.079       .  S
H1132      C1149   1.082       .  S
N1134     Co1148   2.090       .  S
N1135      N1147   1.314       .  A
N1135      N1151   1.320       .  A
C1136      N1140   1.357       .  A
C1136      C1150   1.453       .  S
C1136      C1296   1.483       .  S
C1137      C1156   1.457       .  S
C1137      H1141   1.081       .  S
N1138     Co1148   2.069       .  S
C1142      N1158   1.356       .  A
C1142      C1154   1.454       .  S
C1142      C1286   1.482       .  S
Co1144    Cl1155   2.444       .  S
N1145      C1156   1.349       .  A
C1146      C1389   1.441       .  S
Co1148    Cl1155   2.446       .  S
C1156      C1396   1.440       .  S
C1159      N1177   1.352       .  A
C1159      C1196   1.454       .  S
C1159      C1309   1.467       .  S
N1160      N1177   1.322       .  A
N1160      N1182   1.317       .  A
N1160     Co1197   2.077       .  S
C1161      N1186   1.331       .  A
C1161      C2599   1.458       .  S
C1161      H1206   1.080       .  S
H1162      C1203   1.081       .  S
C1163      N1187   1.346       .  A
C1163      C1167   1.466       .  S
C1163      H1192   1.082       .  S
Co1164     N1182   2.065       .  S
Co1164     N1172   2.063       .  S
Co1164     N1204   2.096       .  S
Co1164     N1180   2.097       .  S
Co1164    Cl2608   2.454   1_455  S
N1165      C1203   1.348       .  A
N1165      N1172   1.319       .  A
N1165     Co2566   2.095   1_455  S
Co1166     N2565   2.095       .  S
Co1166     N1169   2.081       .  S
Co1166     N1186   2.069       .  S
Co1166     N1173   2.079       .  S
Co1166    Cl1208   2.439       .  S
C1167      N1205   1.346       .  A
C1167      C1399   1.448       .  S
N1168      N1175   1.321       .  A
N1168      N1198   1.328       .  A
N1168     Co1201   2.092       .  S
N1169      N1187   1.322       .  A
N1169      N1205   1.324       .  A
N1170      C1199   1.358   1_455  A
N1170      N1180   1.329       .  A
H1171      C1196   1.081       .  S
N1172      N1193   1.315       .  A
N1173      N1191   1.317       .  A
N1173      N1178   1.321       .  A
C1174      N1178   1.351       .  A
C1174      C1202   1.455       .  S
C1174      C1319   1.467       .  S
N1175      C2590   1.335       .  A
N1175     Co2597   2.080       .  S
C1176      N1204   1.345       .  A
C1176      C1179   1.463       .  S
C1176      H1210   1.082       .  S
C1179      N1200   1.348       .  A
C1179      C1387   1.447       .  S
N1180      N2586   1.319   1_455  A
N1181      C1207   1.344       .  A
N1181      N1183   1.319       .  A
N1181     Co2597   2.084       .  S
N1182      C1196   1.337       .  A
N1183      N1211   1.318       .  A
N1183     Co1201   2.075       .  S
H1184      C1207   1.082       .  S
H1185      C1202   1.081       .  S
N1186      N2580   1.319       .  A
N1187     Co1201   2.103       .  S
N1188      N1200   1.325       .  A
N1188      N1204   1.322       .  A
N1188     Co1197   2.089       .  S
C1189      N1193   1.343       .  A
C1189      C1203   1.471       .  S
C1189      C1279   1.474       .  S
C1190      N2575   1.335       .  A
C1190      C2609   1.459       .  S
C1190      H1194   1.081       .  S
N1191      C1202   1.338       .  A
N1191     Co1201   2.064       .  S
C1195      N1211   1.346       .  A
C1195      C1207   1.465       .  S
C1195      C1266   1.464       .  S
Co1197     N2575   2.080       .  S
Co1197     N2581   2.084   1_455  S
Co1197    Cl2608   2.442   1_455  S
N1198      C1209   1.356       .  A
C1199      C2561   1.458       .  S
C1199      C1369   1.487       .  S
Co1201    Cl1208   2.455       .  S
Cl1208    Co2564   2.454       .  S
Cl1208    Co2597   2.442       .  S
C1209      C2590   1.459       .  S
C1209      C1379   1.485       .  S
C1212      N1230   1.356       .  A
C1212      C1249   1.452       .  S
C1212      C1349   1.476       .  S
N1213      N1230   1.330       .  A
N1213      N1235   1.320       .  A
C1214      N1239   1.341       .  A
C1214      C1252   1.456       .  S
C1214      H1259   1.082       .  S
H1215      C1256   1.082       .  S
C1216      N1240   1.343       .  A
C1216      C1220   1.470       .  S
C1216      H1245   1.081       .  S
Co1217     N1257   2.093       .  S
Co1217     N1233   2.096       .  S
N1218      C1256   1.338       .  A
N1218      N1225   1.318   1_565  A
N1218     Co1219   2.081       .  S
Co1219     N1222   2.078       .  S
Co1219    Cl1261   2.449   1_565  S
C1220      N1258   1.347       .  A
C1220      C1289   1.485       .  S
N1221      N1228   1.322       .  A
N1221      N1251   1.329       .  A
N1221     Co1254   2.105       .  S
N1222      N1240   1.321       .  A
N1222      N1258   1.321       .  A
N1223      C1252   1.353       .  A
N1223      N1233   1.329       .  A
H1224      C1249   1.081       .  S
N1225      N1246   1.324   1_545  A
N1226      N1244   1.321       .  A
N1226      N1231   1.328       .  A
C1227      N1231   1.352       .  A
C1227      C1255   1.452       .  S
C1227      C1359   1.467       .  S
N1228      C1243   1.342       .  A
C1229      N1257   1.345       .  A
C1229      C1232   1.472       .  S
C1229      H1263   1.081       .  S
C1232      N1253   1.346       .  A
C1232      C1299   1.485       .  S
N1233      N1239   1.321       .  A
N1234      C1260   1.339       .  A
N1234      N1236   1.319       .  A
N1234     Co1250   2.081       .  S
N1235      C1249   1.329       .  A
N1236      N1264   1.324       .  A
H1237      C1260   1.082       .  S
H1238      C1255   1.081       .  S
N1240     Co1254   2.089       .  S
N1241      N1253   1.320       .  A
N1241      N1257   1.321       .  A
N1241     Co1250   2.076       .  S
C1242      N1246   1.346       .  A
C1242      C1256   1.462       .  S
C1242      C1276   1.465       .  S
C1243      C1262   1.458       .  S
C1243      H1247   1.082       .  S
N1244      C1255   1.335       .  A
C1248      N1264   1.347       .  A
C1248      C1260   1.462       .  S
C1248      C1269   1.471       .  S
N1251      C1262   1.354       .  A
C1252      C1385   1.448       .  S
Co1254    Cl1261   2.450   1_565  S
C1262      C1397   1.452       .  S
C1265      H1271   1.084       .  S
C1265      C1266   1.402       .  A
C1265      C1270   1.391       .  A
C1266      C1267   1.400       .  A
C1267      H1272   1.083       .  S
C1267      C1268   1.402       .  A
C1268      H1273   1.083       .  S
C1268      C1269   1.408       .  A
C1269      C1270   1.400       .  A
C1270      H1274   1.083       .  S
C1275      H1281   1.083       .  S
C1275      C1276   1.404       .  A
C1275      C1280   1.404       .  A
C1276      C1277   1.397       .  A
C1277      H1282   1.083       .  S
C1277      C1278   1.388       .  A
C1278      H1283   1.084       .  S
C1278      C1279   1.406       .  A
C1279      C1280   1.405       .  A
C1280      H1284   1.082       .  S
C1285      H1291   1.082       .  S
C1285      C1286   1.408       .  A
C1285      C1290   1.398       .  A
C1286      C1287   1.402       .  A
C1287      H1292   1.082       .  S
C1287      C1288   1.400       .  A
C1288      H1293   1.083       .  S
C1288      C1289   1.408       .  A
C1289      C1290   1.404       .  A
C1290      H1294   1.081       .  S
C1295      H1301   1.082       .  S
C1295      C1296   1.402       .  A
C1295      C1300   1.400       .  A
C1296      C1297   1.408       .  A
C1297      H1302   1.082       .  S
C1297      C1298   1.399       .  A
C1298      H1303   1.081       .  S
C1298      C1299   1.404       .  A
C1299      C1300   1.409       .  A
C1300      H1304   1.083       .  S
C1305      H1311   1.083       .  S
C1305      C1306   1.405       .  A
C1305      C1310   1.386       .  A
C1306      C1307   1.400       .  A
C1307      H1312   1.083       .  S
C1307      C1308   1.400       .  A
C1308      H1313   1.082       .  S
C1308      C1309   1.409       .  A
C1309      C1310   1.398       .  A
C1310      H1314   1.084       .  S
C1315      H1321   1.083       .  S
C1315      C1316   1.404       .  A
C1315      C1320   1.387       .  A
C1316      C1317   1.400       .  A
C1317      H1322   1.083       .  S
C1317      C1318   1.400       .  A
C1318      H1323   1.082       .  S
C1318      C1319   1.408       .  A
C1319      C1320   1.398       .  A
C1320      H1324   1.084       .  S
C1325      H1331   1.084       .  S
C1325      C1326   1.398       .  A
C1327      H1332   1.084       .  S
C1327      C1328   1.396       .  A
C1328      H1333   1.083       .  S
C1328      C1329   1.397       .  A
C1329      C1330   1.407   1_556  A
C1335      H1341   1.084       .  S
C1335      C1336   1.398       .  A
C1336      C1337   1.405       .  A
C1337      H1342   1.083   1_556  S
C1337      C1338   1.396       .  A
C1338      H1343   1.083   1_556  S
C1338      C1339   1.397       .  A
C1340      H1344   1.083       .  S
C1345      H1351   1.083       .  S
C1345      C1346   1.407       .  A
C1346      C1347   1.397       .  A
C1347      H1352   1.084       .  S
C1347      C1348   1.391       .  A
C1348      H1353   1.083       .  S
C1349      C1350   1.402   1_545  A
C1350      H1354   1.083       .  S
C1355      H1361   1.083       .  S
C1355      C1356   1.403   1_565  A
C1355      C1360   1.407       .  A
C1356      C1357   1.406       .  A
C1357      H1362   1.083       .  S
C1358      H1363   1.084       .  S
C1358      C1359   1.397       .  A
C1360      H1364   1.083       .  S
C1365      H1371   1.083       .  S
C1365      C1366   1.397   1_655  A
C1365      C1370   1.392       .  A
C1366      C1367   1.410       .  A
C1367      H1372   1.083       .  S
C1367      C1368   1.405       .  A
C1368      H2773   1.083       .  S
C1368      C1369   1.404   1_455  A
C1369      C1370   1.411       .  A
C1370      H1374   1.080       .  S
H1373      C2768   1.083       .  S
C1375      H1381   1.083       .  S
C1375      C1376   1.407       .  A
C1375      C1380   1.403       .  A
C1376      C1377   1.402       .  A
C1377      H2782   1.082       .  S
C1377      C1378   1.397       .  A
C1378      H2783   1.082       .  S
C1378      C1379   1.407       .  A
C1379      C1380   1.406       .  A
C1380      H1384   1.083       .  S
H1382      C2777   1.082       .  S
H1383      C2778   1.082       .  S
C1385      C1386   1.214       .  T
C1387      C1388   1.213       .  T
C1389      C1390   1.210       .  T
C1391      C1392   1.213       .  T
C1393      C1394   1.214       .  T
C1395      C1396   1.209       .  T
C1397      C1398   1.216       .  T
C1399      C1400   1.214       .  T
C1401      C1743   1.479       .  S
C1401      C1745   1.471       .  S
C1401      C1748   1.484       .  S
C1401      C1750   1.479       .  S
C1402      C1736   1.479       .  S
C1402      C1738   1.478       .  S
C1402      C1740   1.472       .  S
C1402      C1741   1.477       .  S
C1403      N1421   1.354       .  A
C1403      C1440   1.446       .  S
C1403      C1686   1.456       .  S
N1404      N1421   1.328       .  A
N1404      N1426   1.319       .  A
N1404     Co2141   2.089       .  S
C1405      N1430   1.341       .  A
C1405      C1443   1.455       .  S
H1406      C1447   1.081       .  S
C1407      N1431   1.349       .  A
C1407      C1761   1.469       .  S
C1407      H1436   1.081       .  S
Co1408     N1426   2.066       .  S
Co1408     N1766   2.073       .  S
Co1408     N2148   2.080       .  S
Co1408     N2474   2.095       .  S
N1409      C1447   1.344   1_455  A
N1409     Co1410   2.092   1_455  S
Co1410     N1413   2.073       .  S
Co1410     N2117   2.094       .  S
Co1410    Cl2502   2.443   1_554  S
C1411      N1449   1.345       .  A
C1411      C1757   1.469       .  S
C1411      C1706   1.475       .  S
N1412      N1419   1.321       .  A
N1412      N1442   1.329       .  A
N1412     Co2145   2.096       .  S
N1413      N1781   1.320       .  A
N1413      N1449   1.317       .  A
N1414      C1443   1.353       .  A
N1414      N1424   1.329       .  A
H1415      C1440   1.081       .  S
N1416      N1437   1.323       .  A
N1416     Co1758   2.073       .  S
N1417      N1785   1.320   1_554  A
N1417      N1422   1.329       .  A
N1417     Co2110   2.094       .  S
C1418      N1422   1.355   1_556  A
C1418      C1446   1.444       .  S
C1418      C1676   1.458       .  S
N1419      C1434   1.341       .  A
C1420      N1448   1.344       .  A
C1420      C1423   1.461       .  S
C1420      H1454   1.081       .  S
C1423      N1444   1.347       .  A
C1423      C1696   1.466       .  S
N1424      N1430   1.320       .  A
N1424     Co2458   2.095   1_545  S
N1425      C1451   1.344   1_655  A
N1425      N1427   1.318       .  A
N1426      C1440   1.329       .  A
N1427      N1455   1.324       .  A
N1427     Co1445   2.083       .  S
H1428      C1451   1.080       .  S
H1429      C1796   1.081       .  S
N1431      N1763   1.320       .  A
N1431     Co2145   2.097       .  S
N1432      N1444   1.320       .  A
N1432      N1448   1.320       .  A
N1432     Co1441   2.083   1_545  S
C1433      N1437   1.345       .  A
C1433      C1716   1.479       .  S
C1434      C1453   1.455       .  S
C1434      H1438   1.082       .  S
N1435      C1796   1.329       .  A
N1435      N1767   1.320       .  A
N1435     Co1445   2.063       .  S
C1439      N1455   1.346       .  A
C1439      C1451   1.465   1_655  S
C1439      C1726   1.481       .  S
Co1441     N2104   2.089       .  S
N1442      C1453   1.353       .  A
C1443      C1742   1.446       .  S
Co1445     N2112   2.096   1_545  S
Co1445     N2131   2.097       .  S
Co1445    Cl1452   2.457       .  S
C1446      N1785   1.329       .  A
C1446      H1779   1.081       .  S
N1448     Co2108   2.080   1_545  S
Cl1452    Co2460   2.443       .  S
C1453      C1744   1.448       .  S
C1456      N1474   1.348       .  A
C1456      C1493   1.456       .  S
C1456      C1679   1.464       .  S
N1457      N1474   1.324       .  A
N1457      N1479   1.320       .  A
N1457     Co1494   2.071       .  S
C1458      N1483   1.341       .  A
C1458      C1496   1.456       .  S
C1458      H1503   1.081       .  S
H1459      C1500   1.079       .  S
C1460      N1484   1.348       .  A
C1460      C1464   1.468       .  S
C1460      H1489   1.081       .  S
Co1461     N1479   2.073       .  S
Co1461     N1469   2.095       .  S
Co1461     N1851   2.088       .  S
Co1461     N1827   2.098       .  S
Co1461    Cl1505   2.447       .  S
N1462      C1500   1.336       .  A
N1462      N1469   1.317       .  A
N1462     Co1463   2.074       .  S
Co1463     N1466   2.059       .  S
Co1463     N1833   2.073       .  S
Co1463     N1470   2.072       .  S
Co1463    Cl1505   2.444       .  S
C1464      N1502   1.338       .  A
C1464      C1656   1.464       .  S
N1465      N1472   1.319       .  A
N1465      N1495   1.326       .  A
N1465     Co1498   2.092       .  S
N1466      N1484   1.320       .  A
N1466      N1502   1.313       .  A
N1467      C1496   1.351       .  A
N1467      N1477   1.327       .  A
H1468      C1493   1.082       .  S
N1469      N1490   1.329       .  A
N1470      N1488   1.320       .  A
N1470      N1825   1.324       .  A
C1471      N1475   1.349       .  A
C1471      C1499   1.455       .  S
C1471      C2039   1.465       .  S
N1472      C1487   1.341       .  A
N1472     Co1494   2.077       .  S
C1473      N1501   1.347       .  A
C1473      C1476   1.466       .  S
C1473      H1507   1.081       .  S
N1475      N1820   1.324       .  A
C1476      N1497   1.339       .  A
C1476      C1666   1.464       .  S
N1477      N1483   1.319       .  A
N1477     Co1811   2.098       .  S
N1478      C1504   1.336       .  A
N1478      N1830   1.317       .  A
N1478     Co1844   2.074   1_554  S
N1479      C1493   1.333       .  A
N1480      N1828   1.317       .  A
N1480      N1858   1.328       .  A
N1480     Co1498   2.093       .  S
H1481      C1504   1.079       .  S
H1482      C1499   1.082       .  S
N1483     Co1813   2.073   1_554  S
N1484     Co1498   2.090       .  S
N1485      N1497   1.314       .  A
N1485      N1501   1.320       .  A
N1485     Co1844   2.064   1_554  S
C1486      N1490   1.357       .  A
C1486      C1500   1.453       .  S
C1486      C1646   1.483       .  S
C1487      C1506   1.457       .  S
C1487      H1491   1.081       .  S
N1488      C1849   1.332       .  A
N1488     Co1498   2.069       .  S
C1492      N1508   1.356       .  A
C1492      C1504   1.454       .  S
C1492      C1636   1.482       .  S
Co1494     N1828   2.074       .  S
Co1494     N1835   2.064       .  S
Co1494    Cl1505   2.444       .  S
N1495      C1506   1.349       .  A
C1496      C1739   1.441       .  S
Co1498    Cl1505   2.446       .  S
C1499      N1838   1.332       .  A
N1501     Co1811   2.088       .  S
C1506      C1746   1.440       .  S
N1508      N1830   1.328       .  A
C1509      N1527   1.352       .  A
C1509      C1546   1.454       .  S
C1509      C1659   1.467       .  S
N1510      N1527   1.322       .  A
N1510      N1532   1.317       .  A
N1510     Co1547   2.077       .  S
C1511      N1536   1.331       .  A
C1511      H1556   1.080       .  S
H1512      C1553   1.081       .  S
C1513      N1537   1.346       .  A
C1513      C1517   1.466       .  S
C1513      H1542   1.082       .  S
Co1514     N1532   2.065       .  S
Co1514     N1522   2.063       .  S
Co1514     N1554   2.096       .  S
Co1514     N1530   2.097       .  S
N1515      C1553   1.348       .  A
N1515      N1522   1.319       .  A
Co1516     N1519   2.081       .  S
Co1516     N1536   2.069       .  S
Co1516     N1523   2.079       .  S
Co1516    Cl1558   2.439       .  S
C1517      N1555   1.346       .  A
C1517      C1749   1.448       .  S
N1518      N1525   1.321   1_655  A
N1518      N1548   1.328       .  A
N1518     Co1551   2.092       .  S
N1519      N1537   1.322       .  A
N1519      N1555   1.324       .  A
N1520      C1549   1.358       .  A
N1520      N1530   1.329       .  A
H1521      C1546   1.081       .  S
N1522      N1543   1.315       .  A
N1523      N1541   1.317       .  A
N1523      N1528   1.321       .  A
C1524      N1528   1.351       .  A
C1524      C1552   1.455       .  S
C1524      C1669   1.467       .  S
C1526      N1554   1.345       .  A
C1526      C1529   1.463       .  S
C1526      H1560   1.082       .  S
C1529      N1550   1.348       .  A
C1529      C1737   1.447       .  S
N1531      C1557   1.344       .  A
N1531      N1533   1.319       .  A
N1532      C1546   1.337       .  A
N1533      N1561   1.318       .  A
N1533     Co1551   2.075       .  S
H1534      C1557   1.082       .  S
H1535      C1552   1.081       .  S
N1537     Co1551   2.103       .  S
N1538      N1550   1.325       .  A
N1538      N1554   1.322       .  A
N1538     Co1547   2.089       .  S
C1539      N1543   1.343       .  A
C1539      C1553   1.471       .  S
C1539      C1629   1.474       .  S
C1540      H1544   1.081       .  S
N1541      C1552   1.338       .  A
N1541     Co1551   2.064       .  S
C1545      N1561   1.346       .  A
C1545      C1557   1.465       .  S
C1545      C1616   1.464       .  S
N1548      C1559   1.356   1_655  A
C1549      C1719   1.487       .  S
Co1551    Cl1558   2.455       .  S
C1559      C1729   1.485   1_455  S
C1562      N1580   1.356       .  A
C1562      C1599   1.452       .  S
C1562      C1699   1.476       .  S
N1563      N1580   1.330       .  A
N1563      N1585   1.320       .  A
N1563     Co2300   2.100       .  S
C1564      N1589   1.341       .  A
C1564      C1602   1.456       .  S
C1564      H1609   1.082       .  S
H1565      C1606   1.082       .  S
C1566      N1590   1.343       .  A
C1566      C1570   1.470       .  S
C1566      H1595   1.081       .  S
Co1567     N2285   2.066       .  S
Co1567     N2275   2.073       .  S
Co1567     N1607   2.093       .  S
Co1567     N1583   2.096       .  S
Co1567    Cl2311   2.450       .  S
N1568      C1606   1.338       .  A
N1568      N1575   1.318       .  A
N1568     Co1569   2.081       .  S
Co1569     N1572   2.078       .  S
Co1569     N2289   2.090       .  S
Co1569     N2276   2.089       .  S
Co1569    Cl1611   2.449       .  S
C1570      N1608   1.347       .  A
C1570      C1639   1.485       .  S
N1571      N1578   1.322       .  A
N1571      N1601   1.329       .  A
N1571     Co1604   2.105       .  S
N1572      N1590   1.321       .  A
N1572      N1608   1.321       .  A
N1573      C1602   1.353       .  A
N1573      N1583   1.329       .  A
H1574      C1599   1.081       .  S
N1575      N1596   1.324       .  A
N1575     Co2267   2.073       .  S
N1576      N1594   1.321       .  A
N1576      N1581   1.328       .  A
N1576     Co2269   2.089   1_545  S
C1577      N1581   1.352       .  A
C1577      C1605   1.452       .  S
C1577      C1709   1.467       .  S
N1578      C1593   1.342       .  A
N1578     Co2300   2.092       .  S
C1579      N1607   1.345       .  A
C1579      C1582   1.472       .  S
C1579      H1613   1.081       .  S
C1582      N1603   1.346       .  A
C1582      C1649   1.485       .  S
N1583      N1589   1.321       .  A
N1584      C1610   1.339       .  A
N1584      N1586   1.319       .  A
N1584     Co1600   2.081       .  S
N1585      C1599   1.329       .  A
N1585     Co2267   2.066       .  S
N1586      N1614   1.324       .  A
N1586     Co2304   2.072   1_545  S
H1587      C1610   1.082       .  S
H1588      C1605   1.081   1_565  S
N1589     Co2269   2.090   1_545  S
N1590     Co1604   2.089       .  S
N1591      N1603   1.320       .  A
N1591      N1607   1.321       .  A
N1591     Co1600   2.076       .  S
C1592      N1596   1.346       .  A
C1592      C1606   1.462       .  S
C1592      C1626   1.465       .  S
C1593      C1612   1.458       .  S
C1593      H1597   1.082       .  S
N1594      C1605   1.335       .  A
N1594     Co2304   2.079   1_545  S
C1598      N1614   1.347       .  A
C1598      C1610   1.462       .  S
C1598      C1619   1.471       .  S
Co1600     N2263   2.100       .  S
Co1600     N2278   2.092   1_545  S
Co1600    Cl2311   2.452       .  S
N1601      C1612   1.354       .  A
C1602      C1735   1.448       .  S
Co1604     N2286   2.072       .  S
Co1604     N2294   2.079       .  S
Co1604    Cl1611   2.450       .  S
Cl1611    Co2267   2.450       .  S
Cl1611    Co2300   2.452       .  S
C1612      C1747   1.452       .  S
C1615      H1621   1.084       .  S
C1615      C1616   1.402       .  A
C1615      C1620   1.391       .  A
C1616      C1617   1.400       .  A
C1617      H1622   1.083       .  S
C1617      C1618   1.402       .  A
C1618      H1623   1.083       .  S
C1618      C1619   1.408       .  A
C1619      C1620   1.400       .  A
C1620      H1624   1.083       .  S
C1625      H1631   1.083       .  S
C1625      C1626   1.404       .  A
C1625      C1630   1.404       .  A
C1626      C1627   1.397       .  A
C1627      H1632   1.083       .  S
C1627      C1628   1.388       .  A
C1628      H1633   1.084       .  S
C1628      C1629   1.406       .  A
C1629      C1630   1.405       .  A
C1630      H1634   1.082       .  S
C1635      H1641   1.082       .  S
C1635      C1636   1.408       .  A
C1635      C1640   1.398       .  A
C1636      C1637   1.402       .  A
C1637      H1642   1.082       .  S
C1637      C1638   1.400       .  A
C1638      H1643   1.083       .  S
C1638      C1639   1.408       .  A
C1639      C1640   1.404       .  A
C1640      H1644   1.081       .  S
C1645      H1651   1.082       .  S
C1645      C1646   1.402       .  A
C1645      C1650   1.400       .  A
C1646      C1647   1.408       .  A
C1647      H1652   1.082       .  S
C1647      C1648   1.399       .  A
C1648      H1653   1.081       .  S
C1648      C1649   1.404       .  A
C1649      C1650   1.409       .  A
C1650      H1654   1.083       .  S
C1655      H1661   1.083       .  S
C1655      C1656   1.405       .  A
C1655      C1660   1.386       .  A
C1656      C1657   1.400       .  A
C1657      H1662   1.083       .  S
C1657      C1658   1.400       .  A
C1658      H1663   1.082       .  S
C1658      C1659   1.409       .  A
C1659      C1660   1.398       .  A
C1660      H1664   1.084       .  S
C1665      H1671   1.083       .  S
C1665      C1666   1.404       .  A
C1665      C1670   1.387       .  A
C1666      C1667   1.400       .  A
C1667      H1672   1.083       .  S
C1667      C1668   1.400       .  A
C1668      H1673   1.082       .  S
C1668      C1669   1.408       .  A
C1669      C1670   1.398       .  A
C1670      H1674   1.084       .  S
C1675      H1681   1.084       .  S
C1675      C1676   1.398   1_554  A
C1675      C2030   1.394       .  A
C1676      C2027   1.406       .  A
C1677      H1682   1.084       .  S
C1677      C2026   1.406       .  A
C1677      C1678   1.396       .  A
C1678      H1683   1.083       .  S
C1678      C1679   1.397       .  A
C1679      C1680   1.407       .  A
C1680      H2034   1.083       .  S
C1680      C2025   1.394       .  A
H1684      C2030   1.083       .  S
C1685      H1691   1.084       .  S
C1685      C1686   1.398       .  A
C1685      C2040   1.392       .  A
C1686      C1687   1.405       .  A
C1687      H1692   1.083       .  S
C1687      C1688   1.396       .  A
C1688      H1693   1.083       .  S
C1688      C1689   1.397       .  A
C1689      C1821   1.465       .  S
C1689      C2040   1.407       .  A
C1690      H1694   1.083       .  S
C1690      C2035   1.392       .  A
C1690      C2039   1.407       .  A
C1695      H1701   1.083       .  S
C1695      C1696   1.407   1_565  A
C1695      C2400   1.405       .  A
C1696      C1697   1.397       .  A
C1697      H1702   1.084       .  S
C1697      C1698   1.391       .  A
C1698      H1703   1.083       .  S
C1698      C2399   1.407       .  A
C1699      C2398   1.407       .  A
C1699      C1700   1.402       .  A
C1700      H1704   1.083       .  S
C1700      C2395   1.405       .  A
C1705      H1711   1.083       .  S
C1705      C1706   1.403       .  A
C1705      C1710   1.407       .  A
C1706      C1707   1.406       .  A
C1707      H1712   1.083       .  S
C1707      C2408   1.391       .  A
C1708      H1713   1.084       .  S
C1708      C2407   1.391       .  A
C1708      C1709   1.397       .  A
C1709      C2410   1.408   1_545  A
C1710      H1714   1.083       .  S
C1710      C2409   1.408       .  A
C1715      H1721   1.083       .  S
C1715      C1716   1.397       .  A
C1715      C1720   1.392       .  A
C1716      C1717   1.410       .  A
C1717      H1722   1.083       .  S
C1717      C1718   1.405       .  A
C1718      C1719   1.404       .  A
C1719      C1720   1.411       .  A
C1720      H1724   1.080       .  S
C1725      H1731   1.083       .  S
C1725      C1726   1.407       .  A
C1725      C1730   1.403       .  A
C1726      C1727   1.402   1_655  A
C1727      C1728   1.397       .  A
C1728      C1729   1.407   1_455  A
C1729      C1730   1.406       .  A
C1730      H1734   1.083       .  S
C1735      C1736   1.214       .  T
C1737      C1738   1.213       .  T
C1739      C1740   1.210       .  T
C1741      C1742   1.213       .  T
C1743      C1744   1.214       .  T
C1745      C1746   1.209       .  T
C1747      C1748   1.216       .  T
C1749      C1750   1.214       .  T
C1751      C2093   1.479       .  S
C1751      C2095   1.471       .  S
C1751      C2098   1.484       .  S
C1751      C2100   1.479       .  S
C1752      C2086   1.479       .  S
C1752      C2088   1.478       .  S
C1752      C2090   1.472       .  S
C1752      C2091   1.477       .  S
C1753      N1771   1.354       .  A
C1753      C1790   1.446       .  S
C1753      C2036   1.456       .  S
N1754      N1771   1.328       .  A
N1754      N1776   1.319       .  A
N1754     Co2491   2.089       .  S
C1755      N1780   1.341       .  A
C1755      C1793   1.455       .  S
H1756      C1797   1.081       .  S
C1757      N1781   1.349       .  A
C1757      H1786   1.081   1_554  S
Co1758     N1776   2.066   1_554  S
Co1758     N2498   2.080   1_554  S
Co1758     N2124   2.095       .  S
N1759      C1797   1.344   1_455  A
N1759     Co1760   2.092   1_455  S
Co1760     N1763   2.073       .  S
Co1760     N2467   2.094       .  S
Co1760    Cl2152   2.443       .  S
C1761      N1799   1.345       .  A
C1761      C2056   1.475       .  S
N1762      N1769   1.321       .  A
N1762      N1792   1.329       .  A
N1762     Co2495   2.096       .  S
N1763      N1799   1.317       .  A
N1764      C1793   1.353       .  A
N1764      N1774   1.329       .  A
H1765      C1790   1.081   1_554  S
N1766      N1787   1.323       .  A
N1767      N1772   1.329       .  A
N1767     Co2460   2.094       .  S
C1768      N1772   1.355       .  A
C1768      C1796   1.444       .  S
C1768      C2026   1.458       .  S
N1769      C1784   1.341       .  A
C1770      N1798   1.344       .  A
C1770      C1773   1.461       .  S
C1770      H1804   1.081       .  S
C1773      N1794   1.347       .  A
C1773      C2046   1.466       .  S
N1774      N1780   1.320       .  A
N1774     Co2108   2.095   1_545  S
N1775      C1801   1.344   1_655  A
N1775      N1777   1.318       .  A
N1776      C1790   1.329       .  A
N1777      N1805   1.324       .  A
N1777     Co1795   2.083       .  S
H1778      C1801   1.080       .  S
N1781     Co2495   2.097   1_554  S
N1782      N1794   1.320       .  A
N1782      N1798   1.320       .  A
N1782     Co1791   2.083   1_545  S
C1783      N1787   1.345       .  A
C1783      C2066   1.479       .  S
C1784      C1803   1.455       .  S
C1784      H1788   1.082       .  S
N1785     Co1795   2.063       .  S
C1789      N1805   1.346       .  A
C1789      C1801   1.465   1_655  S
C1789      C2076   1.481       .  S
Co1791     N2454   2.089       .  S
N1792      C1803   1.353       .  A
C1793      C2092   1.446       .  S
Co1795     N2462   2.096   1_545  S
Co1795     N2481   2.097   1_556  S
Co1795    Cl1802   2.457       .  S
N1798     Co2458   2.080   1_546  S
Cl1802    Co2110   2.443   1_556  S
C1803      C2094   1.448       .  S
C1806      N1824   1.348       .  A
C1806      C1843   1.456       .  S
C1806      C2029   1.464       .  S
N1807      N1824   1.324       .  A
N1807      N1829   1.320       .  A
N1807     Co1844   2.071       .  S
C1808      N1833   1.341       .  A
C1808      C1846   1.456       .  S
C1808      H1853   1.081       .  S
H1809      C1850   1.079       .  S
C1810      N1834   1.348       .  A
C1810      C1814   1.468       .  S
C1810      H1839   1.081       .  S
Co1811     N1829   2.073   1_554  S
Co1811     N1819   2.095   1_554  S
Co1811    Cl1855   2.447   1_554  S
N1812      C1850   1.336       .  A
N1812      N1819   1.317       .  A
N1812     Co1813   2.074       .  S
Co1813     N1816   2.059       .  S
Co1813     N1820   2.072       .  S
Co1813    Cl1855   2.444       .  S
C1814      N1852   1.338       .  A
C1814      C2006   1.464       .  S
N1815      N1822   1.319       .  A
N1815      N1845   1.326       .  A
N1815     Co1848   2.092       .  S
N1816      N1834   1.320       .  A
N1816      N1852   1.313       .  A
N1817      C1846   1.351       .  A
N1817      N1827   1.327       .  A
H1818      C1843   1.082       .  S
N1819      N1840   1.329       .  A
N1820      N1838   1.320       .  A
C1821      N1825   1.349       .  A
C1821      C1849   1.455       .  S
N1822      C1837   1.341       .  A
N1822     Co1844   2.077       .  S
C1823      N1851   1.347       .  A
C1823      C1826   1.466       .  S
C1823      H1857   1.081       .  S
C1826      N1847   1.339       .  A
C1826      C2016   1.464       .  S
N1827      N1833   1.319       .  A
N1828      C1854   1.336       .  A
N1829      C1843   1.333       .  A
N1830     Co1848   2.093   1_554  S
H1831      C1854   1.079       .  S
H1832      C1849   1.082       .  S
N1834     Co1848   2.090       .  S
N1835      N1847   1.314       .  A
N1835      N1851   1.320       .  A
C1836      N1840   1.357       .  A
C1836      C1850   1.453       .  S
C1836      C1996   1.483       .  S
C1837      C1856   1.457       .  S
C1837      H1841   1.081       .  S
N1838     Co1848   2.069       .  S
C1842      N1858   1.356       .  A
C1842      C1854   1.454       .  S
C1842      C1986   1.482       .  S
Co1844    Cl1855   2.444       .  S
N1845      C1856   1.349       .  A
C1846      C2089   1.441       .  S
Co1848    Cl1855   2.446       .  S
C1856      C2096   1.440       .  S
C1859      N1877   1.352       .  A
C1859      C1896   1.454       .  S
C1859      C2009   1.467       .  S
N1860      N1877   1.322       .  A
N1860      N1882   1.317       .  A
N1860     Co1897   2.077       .  S
C1861      N1886   1.331       .  A
C1861      H1906   1.080       .  S
H1862      C1903   1.081       .  S
C1863      N1887   1.346       .  A
C1863      C1867   1.466       .  S
C1863      H1892   1.082       .  S
Co1864     N1882   2.065       .  S
Co1864     N1872   2.063       .  S
Co1864     N1904   2.096       .  S
Co1864     N1880   2.097       .  S
N1865      C1903   1.348       .  A
N1865      N1872   1.319       .  A
Co1866     N1869   2.081       .  S
Co1866     N1886   2.069       .  S
Co1866     N1873   2.079       .  S
Co1866    Cl1908   2.439       .  S
C1867      N1905   1.346       .  A
C1867      C2099   1.448       .  S
N1868      N1875   1.321   1_655  A
N1868      N1898   1.328       .  A
N1868     Co1901   2.092       .  S
N1869      N1887   1.322       .  A
N1869      N1905   1.324       .  A
N1870      C1899   1.358       .  A
N1870      N1880   1.329       .  A
H1871      C1896   1.081       .  S
N1872      N1893   1.315       .  A
N1873      N1891   1.317       .  A
N1873      N1878   1.321       .  A
C1874      N1878   1.351       .  A
C1874      C1902   1.455       .  S
C1874      C2019   1.467       .  S
C1876      N1904   1.345       .  A
C1876      C1879   1.463       .  S
C1876      H1910   1.082       .  S
C1879      N1900   1.348       .  A
C1879      C2087   1.447       .  S
N1881      C1907   1.344       .  A
N1881      N1883   1.319       .  A
N1882      C1896   1.337       .  A
N1883      N1911   1.318       .  A
N1883     Co1901   2.075       .  S
H1884      C1907   1.082       .  S
H1885      C1902   1.081       .  S
N1887     Co1901   2.103       .  S
N1888      N1900   1.325       .  A
N1888      N1904   1.322       .  A
N1888     Co1897   2.089       .  S
C1889      N1893   1.343       .  A
C1889      C1903   1.471       .  S
C1889      C1979   1.474       .  S
C1890      H1894   1.081       .  S
N1891      C1902   1.338       .  A
N1891     Co1901   2.064       .  S
C1895      N1911   1.346       .  A
C1895      C1907   1.465       .  S
C1895      C1966   1.464       .  S
N1898      C1909   1.356   1_655  A
C1899      C2069   1.487       .  S
Co1901    Cl1908   2.455       .  S
C1909      C2079   1.485   1_455  S
C1912      N1930   1.356       .  A
C1912      C1949   1.452       .  S
C1912      C2049   1.476       .  S
N1913      N1930   1.330       .  A
N1913      N1935   1.320       .  A
N1913     Co2650   2.100       .  S
C1914      N1939   1.341       .  A
C1914      C1952   1.456       .  S
C1914      H1959   1.082       .  S
H1915      C1956   1.082       .  S
C1916      N1940   1.343       .  A
C1916      C1920   1.470       .  S
C1916      H1945   1.081       .  S
Co1917     N2635   2.066       .  S
Co1917     N2625   2.073       .  S
Co1917     N1957   2.093       .  S
Co1917     N1933   2.096       .  S
Co1917    Cl2661   2.450       .  S
N1918      C1956   1.338       .  A
N1918      N1925   1.318       .  A
N1918     Co1919   2.081       .  S
Co1919     N1922   2.078       .  S
Co1919     N2639   2.090       .  S
Co1919     N2626   2.089       .  S
Co1919    Cl1961   2.449       .  S
C1920      N1958   1.347       .  A
C1920      C1989   1.485       .  S
N1921      N1928   1.322       .  A
N1921      N1951   1.329       .  A
N1921     Co1954   2.105       .  S
N1922      N1940   1.321       .  A
N1922      N1958   1.321       .  A
N1923      C1952   1.353       .  A
N1923      N1933   1.329       .  A
H1924      C1949   1.081       .  S
N1925      N1946   1.324       .  A
N1925     Co2617   2.073       .  S
N1926      N1944   1.321       .  A
N1926      N1931   1.328       .  A
N1926     Co2619   2.089   1_545  S
C1927      N1931   1.352       .  A
C1927      C1955   1.452       .  S
C1927      C2059   1.467       .  S
N1928      C1943   1.342       .  A
N1928     Co2650   2.092       .  S
C1929      N1957   1.345       .  A
C1929      C1932   1.472       .  S
C1929      H1963   1.081       .  S
C1932      N1953   1.346       .  A
C1932      C1999   1.485       .  S
N1933      N1939   1.321       .  A
N1934      C1960   1.339       .  A
N1934      N1936   1.319       .  A
N1934     Co1950   2.081       .  S
N1935      C1949   1.329       .  A
N1935     Co2617   2.066       .  S
N1936      N1964   1.324       .  A
N1936     Co2654   2.072   1_545  S
H1937      C1960   1.082       .  S
H1938      C1955   1.081   1_565  S
N1939     Co2619   2.090   1_545  S
N1940     Co1954   2.089       .  S
N1941      N1953   1.320       .  A
N1941      N1957   1.321       .  A
N1941     Co1950   2.076       .  S
C1942      N1946   1.346       .  A
C1942      C1956   1.462       .  S
C1942      C1976   1.465       .  S
C1943      C1962   1.458       .  S
C1943      H1947   1.082       .  S
N1944      C1955   1.335       .  A
N1944     Co2654   2.079   1_545  S
C1948      N1964   1.347       .  A
C1948      C1960   1.462       .  S
C1948      C1969   1.471       .  S
Co1950     N2613   2.100       .  S
Co1950     N2628   2.092   1_545  S
Co1950    Cl2661   2.452       .  S
N1951      C1962   1.354       .  A
C1952      C2085   1.448       .  S
Co1954     N2636   2.072       .  S
Co1954     N2644   2.079       .  S
Co1954    Cl1961   2.450       .  S
Cl1961    Co2617   2.450       .  S
Cl1961    Co2650   2.452       .  S
C1962      C2097   1.452       .  S
C1965      H1971   1.084       .  S
C1965      C1966   1.402       .  A
C1965      C1970   1.391       .  A
C1966      C1967   1.400       .  A
C1967      H1972   1.083       .  S
C1967      C1968   1.402       .  A
C1968      H1973   1.083       .  S
C1968      C1969   1.408       .  A
C1969      C1970   1.400       .  A
C1970      H1974   1.083       .  S
C1975      H1981   1.083       .  S
C1975      C1976   1.404       .  A
C1975      C1980   1.404       .  A
C1976      C1977   1.397       .  A
C1977      H1982   1.083       .  S
C1977      C1978   1.388       .  A
C1978      H1983   1.084       .  S
C1978      C1979   1.406       .  A
C1979      C1980   1.405       .  A
C1980      H1984   1.082       .  S
C1985      H1991   1.082       .  S
C1985      C1986   1.408       .  A
C1985      C1990   1.398       .  A
C1986      C1987   1.402       .  A
C1987      H1992   1.082       .  S
C1987      C1988   1.400       .  A
C1988      H1993   1.083       .  S
C1988      C1989   1.408       .  A
C1989      C1990   1.404       .  A
C1990      H1994   1.081       .  S
C1995      H2001   1.082       .  S
C1995      C1996   1.402       .  A
C1995      C2000   1.400       .  A
C1996      C1997   1.408       .  A
C1997      H2002   1.082       .  S
C1997      C1998   1.399       .  A
C1998      H2003   1.081       .  S
C1998      C1999   1.404       .  A
C1999      C2000   1.409       .  A
C2000      H2004   1.083       .  S
C2005      H2011   1.083       .  S
C2005      C2006   1.405       .  A
C2005      C2010   1.386       .  A
C2006      C2007   1.400       .  A
C2007      H2012   1.083       .  S
C2007      C2008   1.400       .  A
C2008      H2013   1.082       .  S
C2008      C2009   1.409       .  A
C2009      C2010   1.398       .  A
C2010      H2014   1.084       .  S
C2015      H2021   1.083       .  S
C2015      C2016   1.404       .  A
C2015      C2020   1.387       .  A
C2016      C2017   1.400       .  A
C2017      H2022   1.083       .  S
C2017      C2018   1.400       .  A
C2018      H2023   1.082       .  S
C2018      C2019   1.408       .  A
C2019      C2020   1.398       .  A
C2020      H2024   1.084       .  S
C2025      H2031   1.084       .  S
C2025      C2026   1.398       .  A
C2027      H2032   1.084       .  S
C2027      C2028   1.396       .  A
C2028      H2033   1.083       .  S
C2028      C2029   1.397       .  A
C2029      C2030   1.407   1_556  A
C2035      H2041   1.084       .  S
C2035      C2036   1.398       .  A
C2036      C2037   1.405       .  A
C2037      H2042   1.083   1_556  S
C2037      C2038   1.396       .  A
C2038      H2043   1.083   1_556  S
C2038      C2039   1.397       .  A
C2040      H2044   1.083       .  S
C2045      H2051   1.083       .  S
C2045      C2046   1.407   1_565  A
C2045      C2750   1.405       .  A
C2046      C2047   1.397       .  A
C2047      H2052   1.084       .  S
C2047      C2048   1.391       .  A
C2048      H2053   1.083       .  S
C2048      C2749   1.407       .  A
C2049      C2748   1.407       .  A
C2049      C2050   1.402       .  A
C2050      H2054   1.083       .  S
C2050      C2745   1.405       .  A
C2055      H2061   1.083       .  S
C2055      C2056   1.403       .  A
C2055      C2060   1.407       .  A
C2056      C2057   1.406       .  A
C2057      H2062   1.083       .  S
C2057      C2758   1.391       .  A
C2058      H2063   1.084       .  S
C2058      C2757   1.391       .  A
C2058      C2059   1.397       .  A
C2059      C2760   1.408   1_545  A
C2060      H2064   1.083       .  S
C2060      C2759   1.408       .  A
C2065      H2071   1.083       .  S
C2065      C2066   1.397       .  A
C2065      C2070   1.392       .  A
C2066      C2067   1.410       .  A
C2067      H2072   1.083       .  S
C2067      C2068   1.405       .  A
C2068      C2069   1.404       .  A
C2069      C2070   1.411       .  A
C2070      H2074   1.080       .  S
C2075      H2081   1.083       .  S
C2075      C2076   1.407       .  A
C2075      C2080   1.403       .  A
C2076      C2077   1.402   1_655  A
C2077      C2078   1.397       .  A
C2078      C2079   1.407   1_455  A
C2079      C2080   1.406       .  A
C2080      H2084   1.083       .  S
C2085      C2086   1.214       .  T
C2087      C2088   1.213       .  T
C2089      C2090   1.210       .  T
C2091      C2092   1.213       .  T
C2093      C2094   1.214       .  T
C2095      C2096   1.209       .  T
C2097      C2098   1.216       .  T
C2099      C2100   1.214       .  T
C2101      C2443   1.479       .  S
C2101      C2445   1.471       .  S
C2101      C2448   1.484       .  S
C2101      C2450   1.479       .  S
C2102      C2436   1.479       .  S
C2102      C2438   1.478       .  S
C2102      C2440   1.472       .  S
C2102      C2441   1.477       .  S
C2103      N2121   1.354       .  A
C2103      C2140   1.446       .  S
C2103      C2386   1.456       .  S
N2104      N2121   1.328       .  A
N2104      N2126   1.319       .  A
C2105      N2130   1.341       .  A
C2105      C2143   1.455       .  S
H2106      C2147   1.081       .  S
C2107      N2131   1.349   1_565  A
C2107      C2461   1.469       .  S
C2107      H2136   1.081       .  S
Co2108     N2126   2.066       .  S
Co2108     N2466   2.073       .  S
N2109      C2147   1.344   1_455  A
N2109     Co2110   2.092   1_465  S
Co2110     N2113   2.073       .  S
C2111      N2149   1.345   1_565  A
C2111      C2457   1.469       .  S
C2111      C2406   1.475   1_565  S
N2112      N2119   1.321       .  A
N2112      N2142   1.329       .  A
N2113      N2481   1.320       .  A
N2113      N2149   1.317       .  A
N2114      C2143   1.353       .  A
N2114      N2124   1.329       .  A
H2115      C2140   1.081       .  S
N2116      N2137   1.323       .  A
N2116     Co2458   2.073       .  S
N2117      N2485   1.320   1_554  A
N2117      N2122   1.329       .  A
C2118      N2122   1.355   1_556  A
C2118      C2146   1.444       .  S
C2118      C2376   1.458       .  S
N2119      C2134   1.341       .  A
C2120      N2148   1.344       .  A
C2120      C2123   1.461       .  S
C2120      H2154   1.081       .  S
C2123      N2144   1.347       .  A
C2123      C2396   1.466       .  S
N2124      N2130   1.320       .  A
N2125      C2151   1.344   1_655  A
N2125      N2127   1.318       .  A
N2126      C2140   1.329       .  A
N2127      N2155   1.324       .  A
N2127     Co2145   2.083       .  S
H2128      C2151   1.080       .  S
H2129      C2496   1.081       .  S
N2131      N2463   1.320       .  A
N2132      N2144   1.320       .  A
N2132      N2148   1.320       .  A
N2132     Co2141   2.083       .  S
C2133      N2137   1.345       .  A
C2133      C2416   1.479       .  S
C2134      C2153   1.455       .  S
C2134      H2138   1.082       .  S
N2135      C2496   1.329       .  A
N2135      N2467   1.320       .  A
N2135     Co2145   2.063       .  S
C2139      N2155   1.346       .  A
C2139      C2151   1.465   1_655  S
C2139      C2426   1.481       .  S
N2142      C2153   1.353       .  A
C2143      C2442   1.446       .  S
Co2145    Cl2152   2.457       .  S
C2146      N2485   1.329       .  A
C2146      H2479   1.081       .  S
C2153      C2444   1.448       .  S
C2156      N2174   1.348       .  A
C2156      C2193   1.456       .  S
C2156      C2379   1.464       .  S
N2157      N2174   1.324       .  A
N2157      N2179   1.320       .  A
N2157     Co2194   2.071       .  S
C2158      N2183   1.341       .  A
C2158      C2196   1.456       .  S
C2158      H2203   1.081       .  S
H2159      C2200   1.079       .  S
C2160      N2184   1.348       .  A
C2160      C2164   1.468       .  S
C2160      H2189   1.081       .  S
Co2161     N2179   2.073       .  S
Co2161     N2169   2.095       .  S
Co2161     N2551   2.088       .  S
Co2161     N2527   2.098       .  S
Co2161    Cl2205   2.447       .  S
N2162      C2200   1.336       .  A
N2162      N2169   1.317       .  A
N2162     Co2163   2.074       .  S
Co2163     N2166   2.059       .  S
Co2163     N2533   2.073       .  S
Co2163     N2170   2.072       .  S
Co2163    Cl2205   2.444       .  S
C2164      N2202   1.338       .  A
C2164      C2356   1.464       .  S
N2165      N2172   1.319       .  A
N2165      N2195   1.326       .  A
N2165     Co2198   2.092       .  S
N2166      N2184   1.320       .  A
N2166      N2202   1.313       .  A
N2167      C2196   1.351       .  A
N2167      N2177   1.327       .  A
H2168      C2193   1.082       .  S
N2169      N2190   1.329       .  A
N2170      N2188   1.320       .  A
N2170      N2525   1.324       .  A
C2171      N2175   1.349       .  A
C2171      C2199   1.455       .  S
C2171      C2739   1.465       .  S
N2172      C2187   1.341       .  A
N2172     Co2194   2.077       .  S
C2173      N2201   1.347       .  A
C2173      C2176   1.466       .  S
C2173      H2207   1.081       .  S
N2175      N2520   1.324       .  A
C2176      N2197   1.339       .  A
C2176      C2366   1.464       .  S
N2177      N2183   1.319       .  A
N2177     Co2511   2.098       .  S
N2178      C2204   1.336       .  A
N2178      N2530   1.317       .  A
N2178     Co2544   2.074   1_554  S
N2179      C2193   1.333       .  A
N2180      N2528   1.317       .  A
N2180      N2558   1.328       .  A
N2180     Co2198   2.093       .  S
H2181      C2204   1.079       .  S
H2182      C2199   1.082       .  S
N2183     Co2513   2.073   1_554  S
N2184     Co2198   2.090       .  S
N2185      N2197   1.314       .  A
N2185      N2201   1.320       .  A
N2185     Co2544   2.064   1_554  S
C2186      N2190   1.357       .  A
C2186      C2200   1.453       .  S
C2186      C2346   1.483       .  S
C2187      C2206   1.457       .  S
C2187      H2191   1.081       .  S
N2188      C2549   1.332       .  A
N2188     Co2198   2.069       .  S
C2192      N2208   1.356       .  A
C2192      C2204   1.454       .  S
C2192      C2336   1.482       .  S
Co2194     N2528   2.074       .  S
Co2194     N2535   2.064       .  S
Co2194    Cl2205   2.444       .  S
N2195      C2206   1.349       .  A
C2196      C2439   1.441       .  S
Co2198    Cl2205   2.446       .  S
C2199      N2538   1.332       .  A
N2201     Co2511   2.088       .  S
C2206      C2446   1.440       .  S
N2208      N2530   1.328       .  A
C2209      N2227   1.352       .  A
C2209      C2246   1.454       .  S
C2209      C2359   1.467       .  S
N2210      N2227   1.322       .  A
N2210      N2232   1.317       .  A
N2210     Co2247   2.077       .  S
C2211      N2236   1.331       .  A
C2211      H2256   1.080       .  S
H2212      C2253   1.081       .  S
C2213      N2237   1.346       .  A
C2213      C2217   1.466       .  S
C2213      H2242   1.082       .  S
Co2214     N2232   2.065       .  S
Co2214     N2222   2.063       .  S
Co2214     N2254   2.096       .  S
Co2214     N2230   2.097       .  S
N2215      C2253   1.348       .  A
N2215      N2222   1.319       .  A
Co2216     N2219   2.081       .  S
Co2216     N2236   2.069       .  S
Co2216     N2223   2.079       .  S
Co2216    Cl2258   2.439       .  S
C2217      N2255   1.346       .  A
C2217      C2449   1.448       .  S
N2218      N2225   1.321   1_655  A
N2218      N2248   1.328       .  A
N2218     Co2251   2.092       .  S
N2219      N2237   1.322       .  A
N2219      N2255   1.324       .  A
N2220      C2249   1.358       .  A
N2220      N2230   1.329       .  A
H2221      C2246   1.081       .  S
N2222      N2243   1.315       .  A
N2223      N2241   1.317       .  A
N2223      N2228   1.321       .  A
C2224      N2228   1.351       .  A
C2224      C2252   1.455       .  S
C2224      C2369   1.467       .  S
C2226      N2254   1.345       .  A
C2226      C2229   1.463       .  S
C2226      H2260   1.082       .  S
C2229      N2250   1.348       .  A
C2229      C2437   1.447       .  S
N2231      C2257   1.344       .  A
N2231      N2233   1.319       .  A
N2232      C2246   1.337       .  A
N2233      N2261   1.318       .  A
N2233     Co2251   2.075       .  S
H2234      C2257   1.082       .  S
H2235      C2252   1.081       .  S
N2237     Co2251   2.103       .  S
N2238      N2250   1.325       .  A
N2238      N2254   1.322       .  A
N2238     Co2247   2.089       .  S
C2239      N2243   1.343       .  A
C2239      C2253   1.471       .  S
C2239      C2329   1.474       .  S
C2240      H2244   1.081       .  S
N2241      C2252   1.338       .  A
N2241     Co2251   2.064       .  S
C2245      N2261   1.346       .  A
C2245      C2257   1.465       .  S
C2245      C2316   1.464       .  S
N2248      C2259   1.356   1_655  A
C2249      C2419   1.487       .  S
Co2251    Cl2258   2.455       .  S
C2259      C2429   1.485   1_455  S
C2262      N2280   1.356       .  A
C2262      C2299   1.452       .  S
C2262      C2399   1.476       .  S
N2263      N2280   1.330       .  A
N2263      N2285   1.320       .  A
C2264      N2289   1.341       .  A
C2264      C2302   1.456       .  S
C2264      H2309   1.082       .  S
H2265      C2306   1.082       .  S
C2266      N2290   1.343       .  A
C2266      C2270   1.470       .  S
C2266      H2295   1.081       .  S
Co2267     N2307   2.093       .  S
Co2267     N2283   2.096       .  S
N2268      C2306   1.338       .  A
N2268      N2275   1.318   1_565  A
N2268     Co2269   2.081       .  S
Co2269     N2272   2.078       .  S
Co2269    Cl2311   2.449   1_565  S
C2270      N2308   1.347       .  A
C2270      C2339   1.485       .  S
N2271      N2278   1.322       .  A
N2271      N2301   1.329       .  A
N2271     Co2304   2.105       .  S
N2272      N2290   1.321       .  A
N2272      N2308   1.321       .  A
N2273      C2302   1.353       .  A
N2273      N2283   1.329       .  A
H2274      C2299   1.081       .  S
N2275      N2296   1.324   1_545  A
N2276      N2294   1.321       .  A
N2276      N2281   1.328       .  A
C2277      N2281   1.352       .  A
C2277      C2305   1.452       .  S
C2277      C2409   1.467       .  S
N2278      C2293   1.342       .  A
C2279      N2307   1.345       .  A
C2279      C2282   1.472       .  S
C2279      H2313   1.081       .  S
C2282      N2303   1.346       .  A
C2282      C2349   1.485       .  S
N2283      N2289   1.321       .  A
N2284      C2310   1.339       .  A
N2284      N2286   1.319       .  A
N2284     Co2300   2.081       .  S
N2285      C2299   1.329       .  A
N2286      N2314   1.324       .  A
H2287      C2310   1.082       .  S
H2288      C2305   1.081       .  S
N2290     Co2304   2.089       .  S
N2291      N2303   1.320       .  A
N2291      N2307   1.321       .  A
N2291     Co2300   2.076       .  S
C2292      N2296   1.346       .  A
C2292      C2306   1.462       .  S
C2292      C2326   1.465       .  S
C2293      C2312   1.458       .  S
C2293      H2297   1.082       .  S
N2294      C2305   1.335       .  A
C2298      N2314   1.347       .  A
C2298      C2310   1.462       .  S
C2298      C2319   1.471       .  S
N2301      C2312   1.354       .  A
C2302      C2435   1.448       .  S
Co2304    Cl2311   2.450   1_565  S
C2312      C2447   1.452       .  S
C2315      H2321   1.084       .  S
C2315      C2316   1.402       .  A
C2315      C2320   1.391       .  A
C2316      C2317   1.400       .  A
C2317      H2322   1.083       .  S
C2317      C2318   1.402       .  A
C2318      H2323   1.083       .  S
C2318      C2319   1.408       .  A
C2319      C2320   1.400       .  A
C2320      H2324   1.083       .  S
C2325      H2331   1.083       .  S
C2325      C2326   1.404       .  A
C2325      C2330   1.404       .  A
C2326      C2327   1.397       .  A
C2327      H2332   1.083       .  S
C2327      C2328   1.388       .  A
C2328      H2333   1.084       .  S
C2328      C2329   1.406       .  A
C2329      C2330   1.405       .  A
C2330      H2334   1.082       .  S
C2335      H2341   1.082       .  S
C2335      C2336   1.408       .  A
C2335      C2340   1.398       .  A
C2336      C2337   1.402       .  A
C2337      H2342   1.082       .  S
C2337      C2338   1.400       .  A
C2338      H2343   1.083       .  S
C2338      C2339   1.408       .  A
C2339      C2340   1.404       .  A
C2340      H2344   1.081       .  S
C2345      H2351   1.082       .  S
C2345      C2346   1.402       .  A
C2345      C2350   1.400       .  A
C2346      C2347   1.408       .  A
C2347      H2352   1.082       .  S
C2347      C2348   1.399       .  A
C2348      H2353   1.081       .  S
C2348      C2349   1.404       .  A
C2349      C2350   1.409       .  A
C2350      H2354   1.083       .  S
C2355      H2361   1.083       .  S
C2355      C2356   1.405       .  A
C2355      C2360   1.386       .  A
C2356      C2357   1.400       .  A
C2357      H2362   1.083       .  S
C2357      C2358   1.400       .  A
C2358      H2363   1.082       .  S
C2358      C2359   1.409       .  A
C2359      C2360   1.398       .  A
C2360      H2364   1.084       .  S
C2365      H2371   1.083       .  S
C2365      C2366   1.404       .  A
C2365      C2370   1.387       .  A
C2366      C2367   1.400       .  A
C2367      H2372   1.083       .  S
C2367      C2368   1.400       .  A
C2368      H2373   1.082       .  S
C2368      C2369   1.408       .  A
C2369      C2370   1.398       .  A
C2370      H2374   1.084       .  S
C2375      H2381   1.084       .  S
C2375      C2376   1.398   1_554  A
C2375      C2730   1.394       .  A
C2376      C2727   1.406       .  A
C2377      H2382   1.084       .  S
C2377      C2726   1.406       .  A
C2377      C2378   1.396       .  A
C2378      H2383   1.083       .  S
C2378      C2379   1.397       .  A
C2379      C2380   1.407       .  A
C2380      H2734   1.083       .  S
C2380      C2725   1.394       .  A
H2384      C2730   1.083       .  S
C2385      H2391   1.084       .  S
C2385      C2386   1.398       .  A
C2385      C2740   1.392       .  A
C2386      C2387   1.405       .  A
C2387      H2392   1.083       .  S
C2387      C2388   1.396       .  A
C2388      H2393   1.083       .  S
C2388      C2389   1.397       .  A
C2389      C2521   1.465       .  S
C2389      C2740   1.407       .  A
C2390      H2394   1.083       .  S
C2390      C2735   1.392       .  A
C2390      C2739   1.407       .  A
C2395      H2401   1.083       .  S
C2395      C2396   1.407       .  A
C2396      C2397   1.397       .  A
C2397      H2402   1.084       .  S
C2397      C2398   1.391       .  A
C2398      H2403   1.083       .  S
C2399      C2400   1.402   1_545  A
C2400      H2404   1.083       .  S
C2405      H2411   1.083       .  S
C2405      C2406   1.403   1_565  A
C2405      C2410   1.407       .  A
C2406      C2407   1.406       .  A
C2407      H2412   1.083       .  S
C2408      H2413   1.084       .  S
C2408      C2409   1.397       .  A
C2410      H2414   1.083       .  S
C2415      H2421   1.083       .  S
C2415      C2416   1.397       .  A
C2415      C2420   1.392       .  A
C2416      C2417   1.410       .  A
C2417      H2422   1.083       .  S
C2417      C2418   1.405       .  A
C2418      C2419   1.404       .  A
C2419      C2420   1.411       .  A
C2420      H2424   1.080       .  S
C2425      H2431   1.083       .  S
C2425      C2426   1.407       .  A
C2425      C2430   1.403       .  A
C2426      C2427   1.402   1_655  A
C2427      C2428   1.397       .  A
C2428      C2429   1.407   1_455  A
C2429      C2430   1.406       .  A
C2430      H2434   1.083       .  S
C2435      C2436   1.214       .  T
C2437      C2438   1.213       .  T
C2439      C2440   1.210       .  T
C2441      C2442   1.213       .  T
C2443      C2444   1.214       .  T
C2445      C2446   1.209       .  T
C2447      C2448   1.216       .  T
C2449      C2450   1.214       .  T
C2451      C2793   1.479       .  S
C2451      C2795   1.471       .  S
C2451      C2798   1.484       .  S
C2451      C2800   1.479       .  S
C2452      C2786   1.479       .  S
C2452      C2788   1.478       .  S
C2452      C2790   1.472       .  S
C2452      C2791   1.477       .  S
C2453      N2471   1.354       .  A
C2453      C2490   1.446       .  S
C2453      C2736   1.456       .  S
N2454      N2471   1.328       .  A
N2454      N2476   1.319       .  A
C2455      N2480   1.341       .  A
C2455      C2493   1.455       .  S
H2456      C2497   1.081       .  S
C2457      N2481   1.349   1_565  A
C2457      H2486   1.081   1_554  S
Co2458     N2476   2.066   1_554  S
N2459      C2497   1.344   1_455  A
N2459     Co2460   2.092   1_465  S
Co2460     N2463   2.073       .  S
C2461      N2499   1.345   1_565  A
C2461      C2756   1.475   1_565  S
N2462      N2469   1.321       .  A
N2462      N2492   1.329       .  A
N2463      N2499   1.317       .  A
N2464      C2493   1.353       .  A
N2464      N2474   1.329       .  A
H2465      C2490   1.081   1_554  S
N2466      N2487   1.323       .  A
N2467      N2472   1.329       .  A
C2468      N2472   1.355       .  A
C2468      C2496   1.444       .  S
C2468      C2726   1.458       .  S
N2469      C2484   1.341       .  A
C2470      N2498   1.344       .  A
C2470      C2473   1.461       .  S
C2470      H2504   1.081       .  S
C2473      N2494   1.347       .  A
C2473      C2746   1.466       .  S
N2474      N2480   1.320       .  A
N2475      C2501   1.344   1_655  A
N2475      N2477   1.318       .  A
N2476      C2490   1.329       .  A
N2477      N2505   1.324       .  A
N2477     Co2495   2.083       .  S
H2478      C2501   1.080       .  S
N2482      N2494   1.320       .  A
N2482      N2498   1.320       .  A
N2482     Co2491   2.083       .  S
C2483      N2487   1.345       .  A
C2483      C2766   1.479       .  S
C2484      C2503   1.455       .  S
C2484      H2488   1.082       .  S
N2485     Co2495   2.063       .  S
C2489      N2505   1.346       .  A
C2489      C2501   1.465   1_655  S
C2489      C2776   1.481       .  S
N2492      C2503   1.353       .  A
C2493      C2792   1.446       .  S
Co2495    Cl2502   2.457       .  S
C2503      C2794   1.448       .  S
C2506      N2524   1.348       .  A
C2506      C2543   1.456       .  S
C2506      C2729   1.464       .  S
N2507      N2524   1.324       .  A
N2507      N2529   1.320       .  A
N2507     Co2544   2.071       .  S
C2508      N2533   1.341       .  A
C2508      C2546   1.456       .  S
C2508      H2553   1.081       .  S
H2509      C2550   1.079       .  S
C2510      N2534   1.348       .  A
C2510      C2514   1.468       .  S
C2510      H2539   1.081       .  S
Co2511     N2529   2.073   1_554  S
Co2511     N2519   2.095   1_554  S
Co2511    Cl2555   2.447   1_554  S
N2512      C2550   1.336       .  A
N2512      N2519   1.317       .  A
N2512     Co2513   2.074       .  S
Co2513     N2516   2.059       .  S
Co2513     N2520   2.072       .  S
Co2513    Cl2555   2.444       .  S
C2514      N2552   1.338       .  A
C2514      C2706   1.464       .  S
N2515      N2522   1.319       .  A
N2515      N2545   1.326       .  A
N2515     Co2548   2.092       .  S
N2516      N2534   1.320       .  A
N2516      N2552   1.313       .  A
N2517      C2546   1.351       .  A
N2517      N2527   1.327       .  A
H2518      C2543   1.082       .  S
N2519      N2540   1.329       .  A
N2520      N2538   1.320       .  A
C2521      N2525   1.349       .  A
C2521      C2549   1.455       .  S
N2522      C2537   1.341       .  A
N2522     Co2544   2.077       .  S
C2523      N2551   1.347       .  A
C2523      C2526   1.466       .  S
C2523      H2557   1.081       .  S
C2526      N2547   1.339       .  A
C2526      C2716   1.464       .  S
N2527      N2533   1.319       .  A
N2528      C2554   1.336       .  A
N2529      C2543   1.333       .  A
N2530     Co2548   2.093   1_554  S
H2531      C2554   1.079       .  S
H2532      C2549   1.082       .  S
N2534     Co2548   2.090       .  S
N2535      N2547   1.314       .  A
N2535      N2551   1.320       .  A
C2536      N2540   1.357       .  A
C2536      C2550   1.453       .  S
C2536      C2696   1.483       .  S
C2537      C2556   1.457       .  S
C2537      H2541   1.081       .  S
N2538     Co2548   2.069       .  S
C2542      N2558   1.356       .  A
C2542      C2554   1.454       .  S
C2542      C2686   1.482       .  S
Co2544    Cl2555   2.444       .  S
N2545      C2556   1.349       .  A
C2546      C2789   1.441       .  S
Co2548    Cl2555   2.446       .  S
C2556      C2796   1.440       .  S
C2559      N2577   1.352       .  A
C2559      C2596   1.454       .  S
C2559      C2709   1.467       .  S
N2560      N2577   1.322       .  A
N2560      N2582   1.317       .  A
N2560     Co2597   2.077       .  S
C2561      N2586   1.331       .  A
C2561      H2606   1.080       .  S
H2562      C2603   1.081       .  S
C2563      N2587   1.346       .  A
C2563      C2567   1.466       .  S
C2563      H2592   1.082       .  S
Co2564     N2582   2.065       .  S
Co2564     N2572   2.063       .  S
Co2564     N2604   2.096       .  S
Co2564     N2580   2.097       .  S
N2565      C2603   1.348       .  A
N2565      N2572   1.319       .  A
Co2566     N2569   2.081       .  S
Co2566     N2586   2.069       .  S
Co2566     N2573   2.079       .  S
Co2566    Cl2608   2.439       .  S
C2567      N2605   1.346       .  A
C2567      C2799   1.448       .  S
N2568      N2575   1.321   1_655  A
N2568      N2598   1.328       .  A
N2568     Co2601   2.092       .  S
N2569      N2587   1.322       .  A
N2569      N2605   1.324       .  A
N2570      C2599   1.358       .  A
N2570      N2580   1.329       .  A
H2571      C2596   1.081       .  S
N2572      N2593   1.315       .  A
N2573      N2591   1.317       .  A
N2573      N2578   1.321       .  A
C2574      N2578   1.351       .  A
C2574      C2602   1.455       .  S
C2574      C2719   1.467       .  S
C2576      N2604   1.345       .  A
C2576      C2579   1.463       .  S
C2576      H2610   1.082       .  S
C2579      N2600   1.348       .  A
C2579      C2787   1.447       .  S
N2581      C2607   1.344       .  A
N2581      N2583   1.319       .  A
N2582      C2596   1.337       .  A
N2583      N2611   1.318       .  A
N2583     Co2601   2.075       .  S
H2584      C2607   1.082       .  S
H2585      C2602   1.081       .  S
N2587     Co2601   2.103       .  S
N2588      N2600   1.325       .  A
N2588      N2604   1.322       .  A
N2588     Co2597   2.089       .  S
C2589      N2593   1.343       .  A
C2589      C2603   1.471       .  S
C2589      C2679   1.474       .  S
C2590      H2594   1.081       .  S
N2591      C2602   1.338       .  A
N2591     Co2601   2.064       .  S
C2595      N2611   1.346       .  A
C2595      C2607   1.465       .  S
C2595      C2666   1.464       .  S
N2598      C2609   1.356   1_655  A
C2599      C2769   1.487       .  S
Co2601    Cl2608   2.455       .  S
C2609      C2779   1.485   1_455  S
C2612      N2630   1.356       .  A
C2612      C2649   1.452       .  S
C2612      C2749   1.476       .  S
N2613      N2630   1.330       .  A
N2613      N2635   1.320       .  A
C2614      N2639   1.341       .  A
C2614      C2652   1.456       .  S
C2614      H2659   1.082       .  S
H2615      C2656   1.082       .  S
C2616      N2640   1.343       .  A
C2616      C2620   1.470       .  S
C2616      H2645   1.081       .  S
Co2617     N2657   2.093       .  S
Co2617     N2633   2.096       .  S
N2618      C2656   1.338       .  A
N2618      N2625   1.318   1_565  A
N2618     Co2619   2.081       .  S
Co2619     N2622   2.078       .  S
Co2619    Cl2661   2.449   1_565  S
C2620      N2658   1.347       .  A
C2620      C2689   1.485       .  S
N2621      N2628   1.322       .  A
N2621      N2651   1.329       .  A
N2621     Co2654   2.105       .  S
N2622      N2640   1.321       .  A
N2622      N2658   1.321       .  A
N2623      C2652   1.353       .  A
N2623      N2633   1.329       .  A
H2624      C2649   1.081       .  S
N2625      N2646   1.324   1_545  A
N2626      N2644   1.321       .  A
N2626      N2631   1.328       .  A
C2627      N2631   1.352       .  A
C2627      C2655   1.452       .  S
C2627      C2759   1.467       .  S
N2628      C2643   1.342       .  A
C2629      N2657   1.345       .  A
C2629      C2632   1.472       .  S
C2629      H2663   1.081       .  S
C2632      N2653   1.346       .  A
C2632      C2699   1.485       .  S
N2633      N2639   1.321       .  A
N2634      C2660   1.339       .  A
N2634      N2636   1.319       .  A
N2634     Co2650   2.081       .  S
N2635      C2649   1.329       .  A
N2636      N2664   1.324       .  A
H2637      C2660   1.082       .  S
H2638      C2655   1.081       .  S
N2640     Co2654   2.089       .  S
N2641      N2653   1.320       .  A
N2641      N2657   1.321       .  A
N2641     Co2650   2.076       .  S
C2642      N2646   1.346       .  A
C2642      C2656   1.462       .  S
C2642      C2676   1.465       .  S
C2643      C2662   1.458       .  S
C2643      H2647   1.082       .  S
N2644      C2655   1.335       .  A
C2648      N2664   1.347       .  A
C2648      C2660   1.462       .  S
C2648      C2669   1.471       .  S
N2651      C2662   1.354       .  A
C2652      C2785   1.448       .  S
Co2654    Cl2661   2.450   1_565  S
C2662      C2797   1.452       .  S
C2665      H2671   1.084       .  S
C2665      C2666   1.402       .  A
C2665      C2670   1.391       .  A
C2666      C2667   1.400       .  A
C2667      H2672   1.083       .  S
C2667      C2668   1.402       .  A
C2668      H2673   1.083       .  S
C2668      C2669   1.408       .  A
C2669      C2670   1.400       .  A
C2670      H2674   1.083       .  S
C2675      H2681   1.083       .  S
C2675      C2676   1.404       .  A
C2675      C2680   1.404       .  A
C2676      C2677   1.397       .  A
C2677      H2682   1.083       .  S
C2677      C2678   1.388       .  A
C2678      H2683   1.084       .  S
C2678      C2679   1.406       .  A
C2679      C2680   1.405       .  A
C2680      H2684   1.082       .  S
C2685      H2691   1.082       .  S
C2685      C2686   1.408       .  A
C2685      C2690   1.398       .  A
C2686      C2687   1.402       .  A
C2687      H2692   1.082       .  S
C2687      C2688   1.400       .  A
C2688      H2693   1.083       .  S
C2688      C2689   1.408       .  A
C2689      C2690   1.404       .  A
C2690      H2694   1.081       .  S
C2695      H2701   1.082       .  S
C2695      C2696   1.402       .  A
C2695      C2700   1.400       .  A
C2696      C2697   1.408       .  A
C2697      H2702   1.082       .  S
C2697      C2698   1.399       .  A
C2698      H2703   1.081       .  S
C2698      C2699   1.404       .  A
C2699      C2700   1.409       .  A
C2700      H2704   1.083       .  S
C2705      H2711   1.083       .  S
C2705      C2706   1.405       .  A
C2705      C2710   1.386       .  A
C2706      C2707   1.400       .  A
C2707      H2712   1.083       .  S
C2707      C2708   1.400       .  A
C2708      H2713   1.082       .  S
C2708      C2709   1.409       .  A
C2709      C2710   1.398       .  A
C2710      H2714   1.084       .  S
C2715      H2721   1.083       .  S
C2715      C2716   1.404       .  A
C2715      C2720   1.387       .  A
C2716      C2717   1.400       .  A
C2717      H2722   1.083       .  S
C2717      C2718   1.400       .  A
C2718      H2723   1.082       .  S
C2718      C2719   1.408       .  A
C2719      C2720   1.398       .  A
C2720      H2724   1.084       .  S
C2725      H2731   1.084       .  S
C2725      C2726   1.398       .  A
C2727      H2732   1.084       .  S
C2727      C2728   1.396       .  A
C2728      H2733   1.083       .  S
C2728      C2729   1.397       .  A
C2729      C2730   1.407   1_556  A
C2735      H2741   1.084       .  S
C2735      C2736   1.398       .  A
C2736      C2737   1.405       .  A
C2737      H2742   1.083   1_556  S
C2737      C2738   1.396       .  A
C2738      H2743   1.083   1_556  S
C2738      C2739   1.397       .  A
C2740      H2744   1.083       .  S
C2745      H2751   1.083       .  S
C2745      C2746   1.407       .  A
C2746      C2747   1.397       .  A
C2747      H2752   1.084       .  S
C2747      C2748   1.391       .  A
C2748      H2753   1.083       .  S
C2749      C2750   1.402   1_545  A
C2750      H2754   1.083       .  S
C2755      H2761   1.083       .  S
C2755      C2756   1.403   1_565  A
C2755      C2760   1.407       .  A
C2756      C2757   1.406       .  A
C2757      H2762   1.083       .  S
C2758      H2763   1.084       .  S
C2758      C2759   1.397       .  A
C2760      H2764   1.083       .  S
C2765      H2771   1.083       .  S
C2765      C2766   1.397       .  A
C2765      C2770   1.392       .  A
C2766      C2767   1.410       .  A
C2767      H2772   1.083       .  S
C2767      C2768   1.405       .  A
C2768      C2769   1.404       .  A
C2769      C2770   1.411       .  A
C2770      H2774   1.080       .  S
C2775      H2781   1.083       .  S
C2775      C2776   1.407       .  A
C2775      C2780   1.403       .  A
C2776      C2777   1.402   1_655  A
C2777      C2778   1.397       .  A
C2778      C2779   1.407   1_455  A
C2779      C2780   1.406       .  A
C2780      H2784   1.083       .  S
C2785      C2786   1.214       .  T
C2787      C2788   1.213       .  T
C2789      C2790   1.210       .  T
C2791      C2792   1.213       .  T
C2793      C2794   1.214       .  T
C2795      C2796   1.209       .  T
C2797      C2798   1.216       .  T
C2799      C2800   1.214       .  T
