geometry optimzed in LAMMPS
_audit_creation_date              2020-11-30 
_audit_creation_method            'lammps2cif' 
_symmetry_space_group_name_H-M    'P1' 
_symmetry_Int_Tables_number       1 
_symmetry_cell_setting            triclinic 
loop_ 
_symmetry_equiv_pos_as_xyz 
  x,y,z 
_cell_length_a                    31.927305586890533 
_cell_length_b                    31.917575529657157 
_cell_length_c                    31.91801009712962 
_cell_angle_alpha                 90.00133449162463 
_cell_angle_beta                  89.99584549508448 
_cell_angle_gamma                 90.00120324242745 
loop_ 
_atom_site_label 
_atom_site_type_symbol 
_atom_site_fract_x 
_atom_site_fract_y 
_atom_site_fract_z 
_atom_site_charge 
O1          O  0.29168887  0.30003330  0.38137983    -0.73330
O2          O  0.20848426  0.19999439  0.38147571    -0.73360
O3          O  0.30011190  0.20837791  0.38145368    -0.73410
O4          O  0.20008387  0.29162795  0.38141634    -0.73460
O5          O  0.22520237  0.30103109  0.32024735    -0.73390
O6          O  0.27494586  0.19883746  0.32033658    -0.73370
O7          O  0.19901788  0.22508873  0.32030361    -0.73350
O8          O  0.30115564  0.27480647  0.32026780    -0.73410
Ni9        Ni  0.25009335  0.25001115  0.38712584     1.25410
Ni10       Ni  0.25008294  0.24994091  0.31848646     1.25360
C11         C  0.31173454  0.30204045  0.34572530     0.88850
C12         C  0.18843412  0.19792217  0.34582892     0.88780
C13         C  0.30214976  0.18827217  0.34582775     0.88810
C14         C  0.19802436  0.31165176  0.34574984     0.88980
O15         O  0.39823324  0.29990563  0.19140266    -0.73330
O16         O  0.39830856  0.19997006  0.27475293    -0.73360
O17         O  0.39827328  0.20825484  0.18309494    -0.73410
O18         O  0.39826555  0.29161914  0.28304365    -0.73460
O19         O  0.33710848  0.30100811  0.25793188    -0.73390
O20         O  0.33715440  0.19878819  0.20826801    -0.73370
O21         O  0.33715690  0.22507827  0.28420678    -0.73350
O22         O  0.33710286  0.27473042  0.18199889    -0.73410
Ni23       Ni  0.40395766  0.24993878  0.23307177     1.25410
Ni24       Ni  0.33533049  0.24989943  0.23310158     1.25360
C25         C  0.36258368  0.30191987  0.17136687     0.88850
C26         C  0.36267638  0.19791999  0.29482212     0.88780
C27         C  0.36264303  0.18817774  0.18107490     0.88810
C28         C  0.36261562  0.31165634  0.28509010     0.88980
O29         O  0.27485799  0.33708047  0.28417219    -0.73330
O30         O  0.22514127  0.33699469  0.18199038    -0.73360
O31         O  0.30107305  0.33703408  0.20821576    -0.73410
O32         O  0.19892389  0.33704080  0.25795050    -0.73460
O33         O  0.20836773  0.39820689  0.28305999    -0.73390
O34         O  0.29159294  0.39815680  0.18301794    -0.73370
O35         O  0.19997691  0.39813850  0.19141460    -0.73350
O36         O  0.29998308  0.39822817  0.27466032    -0.73410
Ni37       Ni  0.24999871  0.33523596  0.23308352     1.25410
Ni38       Ni  0.24997834  0.40387725  0.23303444     1.25360
C39         C  0.30203790  0.36259380  0.29474315     0.88850
C40         C  0.19794546  0.36247531  0.17137930     0.88780
C41         C  0.31165481  0.36251124  0.18099959     0.88810
C42         C  0.18832769  0.36255170  0.28513014     0.88980
O43         O  0.16289165  0.30094809  0.20828498    -0.73330
O44         O  0.16293828  0.19878365  0.25805851    -0.73360
O45         O  0.16291644  0.22498666  0.18210302    -0.73410
O46         O  0.16291831  0.27474948  0.28425885    -0.73460
O47         O  0.10178649  0.29988841  0.27479950    -0.73390
O48         O  0.10179948  0.19981490  0.19160747    -0.73370
O49         O  0.10182794  0.20825008  0.28324848    -0.73350
O50         O  0.10175961  0.29144871  0.18316223    -0.73410
Ni51       Ni  0.16471833  0.24986920  0.23317658     1.25410
Ni52       Ni  0.09609949  0.24984774  0.23320614     1.25360
C53         C  0.13739073  0.31151878  0.18109251     0.88850
C54         C  0.13747232  0.18819946  0.28527973     0.88780
C55         C  0.13743341  0.19777712  0.17153911     0.88810
C56         C  0.13742901  0.30194651  0.29484544     0.88980
O57         O  0.20843091  0.10155982  0.18326746    -0.73330
O58         O  0.29173467  0.10163914  0.28323815    -0.73360
O59         O  0.20011874  0.10163073  0.27491046    -0.73410
O60         O  0.30006189  0.10157232  0.19157539    -0.73460
O61         O  0.27489650  0.16269959  0.18207442    -0.73390
O62         O  0.22525838  0.16279442  0.28429241    -0.73370
O63         O  0.30117804  0.16275841  0.25802660    -0.73350
O64         O  0.19899558  0.16273227  0.20837112    -0.73410
Ni65       Ni  0.25008712  0.09590615  0.23325075     1.25410
Ni66       Ni  0.25008480  0.16454667  0.23319008     1.25360
C67         C  0.18837679  0.13720773  0.18121418     0.88850
C68         C  0.31178822  0.13729062  0.28524164     0.88780
C69         C  0.19808728  0.13729931  0.29493484     0.88810
C70         C  0.30208216  0.13720251  0.17147888     0.88980
O71         O  0.22518220  0.19872256  0.14603713    -0.73330
O72         O  0.27482790  0.30093667  0.14594623    -0.73360
O73         O  0.19891683  0.27466812  0.14599478    -0.73410
O74         O  0.30109682  0.22498592  0.14598243    -0.73460
O75         O  0.29162324  0.19978769  0.08485850    -0.73390
O76         O  0.20834416  0.29978054  0.08482827    -0.73370
O77         O  0.29996659  0.29143777  0.08480253    -0.73350
O78         O  0.19999960  0.20813095  0.08490256    -0.73410
Ni79       Ni  0.25000715  0.24982954  0.14779223     1.25410
Ni80       Ni  0.24998202  0.24978004  0.07915339     1.25360
C81         C  0.19798389  0.18809756  0.12056750     0.88850
C82         C  0.30200377  0.31152657  0.12043539     0.88780
C83         C  0.18830117  0.30183918  0.12048308     0.88810
C84         C  0.31169024  0.19777685  0.12049931     0.88980
C85         C  0.33763503  0.33761786  0.32067610    -0.01390
C86         C  0.41237926  0.41233369  0.39544373    -0.01390
C87         C  0.33773620  0.16232961  0.32080682    -0.01390
C88         C  0.41280095  0.08761693  0.39534578    -0.01390
C89         C  0.16242143  0.33756193  0.32074648    -0.01390
C90         C  0.08759363  0.41228761  0.39544674    -0.01390
C91         C  0.33757941  0.33748669  0.14541795    -0.01390
C92         C  0.41236566  0.41221444  0.07070866    -0.01390
C93         C  0.16251583  0.16230968  0.32087314    -0.01390
C94         C  0.08801099  0.08755260  0.39578825    -0.01390
C95         C  0.16236458  0.33744025  0.14547055    -0.01390
C96         C  0.08758018  0.41216788  0.07071994    -0.01390
C97         C  0.33764528  0.16220426  0.14550349    -0.01390
C98         C  0.41238648  0.08749780  0.07064760    -0.01390
C99         C  0.16242341  0.16217785  0.14562430    -0.01390
C100        C  0.08759217  0.08743642  0.07101448    -0.01390
O101        O  0.08723960  0.05093322  0.00821260    -0.73330
O102        O  0.08708523  0.44879498  0.45824895    -0.73360
O103        O  0.08708981  0.47497539  0.03421639    -0.73410
O104        O  0.08747314  0.02472924  0.43224562    -0.73460
O105        O  0.14855197  0.04991189  0.44190100    -0.73390
O106        O  0.14821826  0.44982462  0.02474738    -0.73370
O107        O  0.14822456  0.45824726  0.43311148    -0.73350
O108        O  0.14830428  0.04146380  0.03351977    -0.73410
Ni109      Ni  0.08529756  0.49987047  0.48314229     1.25410
Ni110      Ni  0.15392233  0.49985479  0.48314032     1.25360
C111        C  0.11265953  0.06151705  0.03547369     0.88850
C112        C  0.11258020  0.43820078  0.43105727     0.88780
C113        C  0.11257725  0.44777515  0.04480234     0.88810
C114        C  0.11297056  0.05195154  0.42174493     0.88980
O115        O  0.02491146  0.08698361  0.03433814    -0.73330
O116        O  0.47547695  0.08709040  0.43201498    -0.73360
O117        O  0.05132277  0.08701286  0.45846128    -0.73410
O118        O  0.44903331  0.08706075  0.00792195    -0.73460
O119        O  0.45847637  0.14816895  0.03316195    -0.73390
O120        O  0.04197320  0.14819607  0.43334668    -0.73370
O121        O  0.45032586  0.14823210  0.44147963    -0.73350
O122        O  0.05010381  0.14813329  0.02499632    -0.73410
Ni123      Ni  0.00018214  0.08523414  0.48318458     1.25410
Ni124      Ni  0.00022080  0.15387671  0.48324822     1.25360
C125        C  0.05208071  0.11246415  0.04502145     0.88850
C126        C  0.44832514  0.11260380  0.42137638     0.88780
C127        C  0.06200694  0.11253455  0.43132776     0.88810
C128        C  0.43839904  0.11252928  0.03512794     0.88980
O129        O  0.47513635  0.05093252  0.07025272    -0.73330
O130        O  0.02482496  0.44872284  0.07025027    -0.73360
O131        O  0.44891023  0.47498839  0.07026481    -0.73410
O132        O  0.05105437  0.02466671  0.07042043    -0.73460
O133        O  0.04146773  0.04979640  0.13155555    -0.73270
O134        O  0.45834693  0.44979057  0.13139358    -0.73370
O135        O  0.04996738  0.45813556  0.13140290    -0.73350
O136        O  0.44985446  0.04145080  0.13134282    -0.73410
Ni137      Ni  0.49999648  0.49983048  0.06848596     1.25410
Ni138      Ni  0.49998501  0.49978456  0.13712560     1.25360
C139        C  0.44790381  0.06153055  0.09570094     0.88850
C140        C  0.05200346  0.43809730  0.09574132     0.88780
C141        C  0.43830077  0.44778100  0.09574032     0.88810
C142        C  0.06160264  0.05184468  0.09595270     0.88980
O143        O  0.35186550  0.04990140  0.02447010    -0.73330
O144        O  0.35175110  0.44994124  0.44146752    -0.73360
O145        O  0.35174832  0.45824436  0.03311469    -0.73410
O146        O  0.35210619  0.04160921  0.43283272    -0.73460
O147        O  0.41321107  0.05098214  0.45809117    -0.73390
O148        O  0.41287885  0.44879678  0.00795570    -0.73370
O149        O  0.41288440  0.47509041  0.43202629    -0.73350
O150        O  0.41296735  0.02473704  0.03405144    -0.73410
Ni151      Ni  0.34606895  0.49991922  0.48314227     1.25410
Ni152      Ni  0.41469172  0.49990753  0.48313837     1.25360
C153        C  0.38745213  0.05192295  0.04461740     0.88850
C154        C  0.38738990  0.44791074  0.42140634     0.88780
C155        C  0.38738364  0.43818036  0.03513754     0.88810
C156        C  0.38776571  0.06163501  0.43087404     0.88980
O157        O  0.45896583  0.05003181  0.33476566    -0.73330
O158        O  0.04162453  0.44996639  0.33481371    -0.73360
O159        O  0.45001176  0.45835864  0.33482429    -0.73410
O160        O  0.05056193  0.04161265  0.33502529    -0.73460
O161        O  0.02524290  0.05100387  0.39611836    -0.73390
O162        O  0.47515195  0.44885915  0.39596496    -0.73370
O163        O  0.05108629  0.47508552  0.39597020    -0.73350
O164        O  0.44928572  0.02478991  0.39582789    -0.73410
Ni165      Ni  0.50058678  0.99999816  0.32915627     1.25410
Ni166      Ni  0.50000949  0.49994933  0.39779688     1.25360
C167        C  0.43878887  0.05203745  0.37034845     0.88850
C168        C  0.06167620  0.44790118  0.37046034     0.88780
C169        C  0.44796768  0.43827906  0.37046061     0.88810
C170        C  0.05249540  0.06162967  0.37069987     0.88980
O171        O  0.05106265  0.41270093  0.00792978    -0.73330
O172        O  0.44889868  0.41276756  0.45822834    -0.73360
O173        O  0.47513513  0.41270689  0.03417798    -0.73410
O174        O  0.02482360  0.41276460  0.43197800    -0.73460
O175        O  0.04995622  0.35160817  0.44139746    -0.73390
O176        O  0.44996286  0.35157838  0.02467252    -0.73370
O177        O  0.45833784  0.35163801  0.43302749    -0.73350
O178        O  0.04158067  0.35154666  0.03304813    -0.73410
Ni179      Ni  0.49998041  0.41453715  0.48308002     1.25410
Ni180      Ni  0.49995778  0.34589765  0.48303208     1.25360
C181        C  0.06164704  0.38718783  0.03511102     0.88850
C182        C  0.43829633  0.38729489  0.43101558     0.88780
C183        C  0.44793870  0.38721357  0.04475838     0.88810
C184        C  0.05200429  0.38727018  0.42136179     0.88980
C185        C  0.11405027  0.11388658  0.09749794    -0.12170
C186        C  0.13591557  0.13568815  0.11923039    -0.13730
C187        C  0.36409899  0.13573066  0.11899225    -0.12170
C188        C  0.38588069  0.11394742  0.09713057    -0.13730
C189        C  0.11405596  0.38568162  0.09718099    -0.12170
C190        C  0.13587410  0.36388827  0.11898553    -0.13730
C191        C  0.13614296  0.13584786  0.34742710    -0.12170
C192        C  0.11445283  0.11403803  0.36932583    -0.13730
C193        C  0.36405145  0.36394382  0.11894025    -0.12170
C194        C  0.38587814  0.38574019  0.09715421    -0.13730
C195        C  0.11408658  0.38583045  0.36897801    -0.12170
C196        C  0.13593147  0.36403665  0.34720101    -0.13730
C197        C  0.36432312  0.13588337  0.34721829    -0.12170
C198        C  0.38627635  0.11409982  0.36890878    -0.13730
C199        C  0.38590973  0.38589236  0.36894531    -0.12170
C200        C  0.36410778  0.36410371  0.34712654    -0.13730
O201        O  0.29168889  0.30003327  0.88137986    -0.73330
O202        O  0.20848428  0.19999437  0.88147574    -0.73360
O203        O  0.30011192  0.20837789  0.88145370    -0.73410
O204        O  0.20008389  0.29162793  0.88141638    -0.73460
O205        O  0.22520238  0.30103108  0.82024739    -0.73390
O206        O  0.27494588  0.19883745  0.82033660    -0.73370
O207        O  0.19901790  0.22508872  0.82030363    -0.73350
O208        O  0.30115565  0.27480646  0.82026783    -0.73410
Ni209      Ni  0.25009336  0.25001113  0.88712587     1.25410
Ni210      Ni  0.25008295  0.24994090  0.81848648     1.25360
C211        C  0.31173455  0.30204043  0.84572533     0.88850
C212        C  0.18843414  0.19792215  0.84582894     0.88780
C213        C  0.30214978  0.18827216  0.84582776     0.88810
C214        C  0.19802438  0.31165174  0.84574989     0.88980
O215        O  0.39823324  0.29990563  0.69140269    -0.73330
O216        O  0.39830857  0.19997005  0.77475294    -0.73360
O217        O  0.39827329  0.20825484  0.68309496    -0.73410
O218        O  0.39826556  0.29161913  0.78304368    -0.73460
O219        O  0.33710849  0.30100811  0.75793191    -0.73390
O220        O  0.33715441  0.19878819  0.70826803    -0.73370
O221        O  0.33715692  0.22507826  0.78420680    -0.73350
O222        O  0.33710286  0.27473043  0.68199892    -0.73410
Ni223      Ni  0.40395767  0.24993878  0.73307178     1.25410
Ni224      Ni  0.33533050  0.24989943  0.73310160     1.25360
C225        C  0.36258369  0.30191987  0.67136690     0.88850
C226        C  0.36267639  0.19791998  0.79482214     0.88780
C227        C  0.36264304  0.18817774  0.68107491     0.88810
C228        C  0.36261563  0.31165633  0.78509013     0.88980
O229        O  0.27485800  0.33708046  0.78417223    -0.73330
O230        O  0.22514128  0.33699469  0.68199042    -0.73360
O231        O  0.30107306  0.33703408  0.70821580    -0.73410
O232        O  0.19892391  0.33704079  0.75795054    -0.73460
O233        O  0.20836775  0.39820688  0.78306004    -0.73390
O234        O  0.29159294  0.39815680  0.68301799    -0.73370
O235        O  0.19997692  0.39813851  0.69141465    -0.73350
O236        O  0.29998309  0.39822816  0.77466037    -0.73410
Ni237      Ni  0.24999872  0.33523595  0.73308355     1.25410
Ni238      Ni  0.24997835  0.40387724  0.73303449     1.25360
C239        C  0.30203791  0.36259379  0.79474319     0.88850
C240        C  0.19794547  0.36247531  0.67137934     0.88780
C241        C  0.31165482  0.36251125  0.68099963     0.88810
C242        C  0.18832770  0.36255169  0.78513018     0.88980
O243        O  0.16289166  0.30094809  0.70828502    -0.73330
O244        O  0.16293830  0.19878365  0.75805853    -0.73360
O245        O  0.16291645  0.22498666  0.68210305    -0.73410
O246        O  0.16291832  0.27474947  0.78425888    -0.73460
O247        O  0.10178650  0.29988840  0.77479954    -0.73390
O248        O  0.10179949  0.19981490  0.69160750    -0.73370
O249        O  0.10182795  0.20825008  0.78324851    -0.73350
O250        O  0.10175961  0.29144871  0.68316227    -0.73410
Ni251      Ni  0.16471833  0.24986920  0.73317661     1.25410
Ni252      Ni  0.09609950  0.24984774  0.73320617     1.25360
C253        C  0.13739073  0.31151879  0.68109255     0.88850
C254        C  0.13747234  0.18819945  0.78527976     0.88780
C255        C  0.13743341  0.19777712  0.67153914     0.88810
C256        C  0.13742902  0.30194650  0.79484548     0.88980
O257        O  0.20843092  0.10155982  0.68326747    -0.73330
O258        O  0.29173468  0.10163914  0.78323815    -0.73360
O259        O  0.20011875  0.10163072  0.77491047    -0.73410
O260        O  0.30006189  0.10157232  0.69157539    -0.73460
O261        O  0.27489651  0.16269959  0.68207444    -0.73390
O262        O  0.22525839  0.16279440  0.78429243    -0.73370
O263        O  0.30117805  0.16275840  0.75802661    -0.73350
O264        O  0.19899559  0.16273227  0.70837114    -0.73410
Ni265      Ni  0.25008713  0.09590614  0.73325076     1.25410
Ni266      Ni  0.25008481  0.16454666  0.73319010     1.25360
C267        C  0.18837679  0.13720773  0.68121420     0.88850
C268        C  0.31178823  0.13729061  0.78524165     0.88780
C269        C  0.19808729  0.13729930  0.79493486     0.88810
C270        C  0.30208217  0.13720252  0.67147889     0.88980
O271        O  0.22518220  0.19872257  0.64603715    -0.73330
O272        O  0.27482790  0.30093668  0.64594627    -0.73360
O273        O  0.19891683  0.27466812  0.64599482    -0.73410
O274        O  0.30109683  0.22498593  0.64598245    -0.73460
O275        O  0.29162324  0.19978770  0.58485851    -0.73390
O276        O  0.20834416  0.29978055  0.58482831    -0.73370
O277        O  0.29996658  0.29143778  0.58480256    -0.73350
O278        O  0.19999960  0.20813097  0.58490259    -0.73410
Ni279      Ni  0.25000715  0.24982954  0.64779226     1.25410
Ni280      Ni  0.24998202  0.24978005  0.57915342     1.25360
C281        C  0.19798389  0.18809757  0.62056752     0.88850
C282        C  0.30200377  0.31152658  0.62043542     0.88780
C283        C  0.18830117  0.30183919  0.62048312     0.88810
C284        C  0.31169024  0.19777685  0.62049933     0.88980
C285        C  0.33763504  0.33761785  0.82067613    -0.01390
C286        C  0.41237927  0.41233368  0.89544374    -0.01390
C287        C  0.33773621  0.16232959  0.82080683    -0.01390
C288        C  0.41280095  0.08761692  0.89534579    -0.01390
C289        C  0.16242144  0.33756191  0.82074653    -0.01390
C290        C  0.08759362  0.41228761  0.89544675    -0.01390
C291        C  0.33757942  0.33748669  0.64541798    -0.01390
C292        C  0.41236566  0.41221444  0.57070866    -0.01390
C293        C  0.16251585  0.16230967  0.82087316    -0.01390
C294        C  0.08801099  0.08755260  0.89578826    -0.01390
C295        C  0.16236458  0.33744026  0.64547059    -0.01390
C296        C  0.08758019  0.41216788  0.57071995    -0.01390
C297        C  0.33764528  0.16220427  0.64550350    -0.01390
C298        C  0.41238649  0.08749781  0.57064760    -0.01390
C299        C  0.16242341  0.16217785  0.64562432    -0.01390
C300        C  0.08759218  0.08743642  0.57101448    -0.01390
O301        O  0.08723960  0.05093321  0.50821260    -0.73330
O302        O  0.08708522  0.44879498  0.95824895    -0.73360
O303        O  0.08708981  0.47497539  0.53421638    -0.73410
O304        O  0.08747314  0.02472924  0.93224562    -0.73460
O305        O  0.14855197  0.04991190  0.94190101    -0.73390
O306        O  0.14821826  0.44982462  0.52474738    -0.73370
O307        O  0.14822455  0.45824725  0.93311149    -0.73350
O308        O  0.14830428  0.04146379  0.53351976    -0.73410
Ni309      Ni  0.08529755  0.49987047  0.98314229     1.25410
Ni310      Ni  0.15392232  0.49985479  0.98314033     1.25360
C311        C  0.11265953  0.06151705  0.53547369     0.88850
C312        C  0.11258020  0.43820078  0.93105728     0.88780
C313        C  0.11257726  0.44777515  0.54480234     0.88810
C314        C  0.11297056  0.05195155  0.92174494     0.88980
O315        O  0.02491146  0.08698361  0.53433814    -0.73330
O316        O  0.47547695  0.08709040  0.93201499    -0.73360
O317        O  0.05132276  0.08701286  0.95846128    -0.73410
O318        O  0.44903331  0.08706075  0.50792195    -0.73460
O319        O  0.45847639  0.14816895  0.53316195    -0.73390
O320        O  0.04197319  0.14819607  0.93334669    -0.73370
O321        O  0.45032585  0.14823210  0.94147964    -0.73350
O322        O  0.05010382  0.14813329  0.52499632    -0.73410
Ni323      Ni  0.00018213  0.08523414  0.98318458     1.25410
Ni324      Ni  0.00022079  0.15387671  0.98324823     1.25360
C325        C  0.05208071  0.11246415  0.54502145     0.88850
C326        C  0.44832513  0.11260379  0.92137638     0.88780
C327        C  0.06200693  0.11253455  0.93132776     0.88810
C328        C  0.43839905  0.11252928  0.53512794     0.88980
O329        O  0.47513636  0.05093252  0.57025271    -0.73330
O330        O  0.02482497  0.44872284  0.57025026    -0.73360
O331        O  0.44891023  0.47498839  0.57026480    -0.73410
O332        O  0.05105437  0.02466670  0.57042043    -0.73460
O333        O  0.04146772  0.04979640  0.63155555    -0.73270
O334        O  0.45834693  0.44979057  0.63139357    -0.73370
O335        O  0.04996738  0.45813556  0.63140290    -0.73350
O336        O  0.44985447  0.04145080  0.63134282    -0.73410
Ni337      Ni  0.49999648  0.49983048  0.56848595     1.25410
Ni338      Ni  0.49998501  0.49978456  0.63712560     1.25360
C339        C  0.44790382  0.06153055  0.59570094     0.88850
C340        C  0.05200346  0.43809731  0.59574131     0.88780
C341        C  0.43830077  0.44778100  0.59574031     0.88810
C342        C  0.06160264  0.05184467  0.59595270     0.88980
O343        O  0.35186550  0.04990141  0.52447010    -0.73330
O344        O  0.35175111  0.44994124  0.94146752    -0.73360
O345        O  0.35174831  0.45824436  0.53311469    -0.73410
O346        O  0.35210619  0.04160921  0.93283272    -0.73460
O347        O  0.41321107  0.05098214  0.95809118    -0.73390
O348        O  0.41287884  0.44879678  0.50795569    -0.73370
O349        O  0.41288441  0.47509041  0.93202629    -0.73350
O350        O  0.41296736  0.02473704  0.53405144    -0.73410
Ni351      Ni  0.34606896  0.49991922  0.98314226     1.25410
Ni352      Ni  0.41469173  0.49990753  0.98313837     1.25360
C353        C  0.38745214  0.05192296  0.54461740     0.88850
C354        C  0.38738992  0.44791074  0.92140635     0.88780
C355        C  0.38738363  0.43818035  0.53513754     0.88810
C356        C  0.38776571  0.06163501  0.93087405     0.88980
O357        O  0.45896584  0.05003180  0.83476567    -0.73330
O358        O  0.04162453  0.44996638  0.83481372    -0.73360
O359        O  0.45001178  0.45835863  0.83482430    -0.73410
O360        O  0.05056193  0.04161265  0.83502530    -0.73460
O361        O  0.02524290  0.05100387  0.89611836    -0.73390
O362        O  0.47515196  0.44885915  0.89596497    -0.73370
O363        O  0.05108628  0.47508552  0.89597020    -0.73350
O364        O  0.44928572  0.02478990  0.89582789    -0.73410
Ni365      Ni  0.50058678  0.99999816  0.82915628     1.25410
Ni366      Ni  0.50000951  0.49994933  0.89779689     1.25360
C367        C  0.43878887  0.05203745  0.87034846     0.88850
C368        C  0.06167620  0.44790118  0.87046034     0.88780
C369        C  0.44796769  0.43827905  0.87046062     0.88810
C370        C  0.05249540  0.06162967  0.87069988     0.88980
O371        O  0.05106265  0.41270093  0.50792978    -0.73330
O372        O  0.44889869  0.41276756  0.95822835    -0.73360
O373        O  0.47513513  0.41270689  0.53417797    -0.73410
O374        O  0.02482360  0.41276459  0.93197800    -0.73460
O375        O  0.04995622  0.35160817  0.94139747    -0.73390
O376        O  0.44996285  0.35157838  0.52467252    -0.73370
O377        O  0.45833785  0.35163800  0.93302750    -0.73350
O378        O  0.04158067  0.35154666  0.53304813    -0.73410
Ni379      Ni  0.49998042  0.41453715  0.98308002     1.25410
Ni380      Ni  0.49995779  0.34589765  0.98303209     1.25360
C381        C  0.06164705  0.38718783  0.53511102     0.88850
C382        C  0.43829634  0.38729489  0.93101558     0.88780
C383        C  0.44793869  0.38721357  0.54475837     0.88810
C384        C  0.05200429  0.38727017  0.92136180     0.88980
C385        C  0.11405028  0.11388658  0.59749795    -0.12170
C386        C  0.13591557  0.13568815  0.61923040    -0.13730
C387        C  0.36409899  0.13573066  0.61899226    -0.12170
C388        C  0.38588069  0.11394742  0.59713058    -0.13730
C389        C  0.11405597  0.38568162  0.59718100    -0.12170
C390        C  0.13587410  0.36388828  0.61898557    -0.13730
C391        C  0.13614297  0.13584786  0.84742712    -0.12170
C392        C  0.11445283  0.11403803  0.86932584    -0.13730
C393        C  0.36405145  0.36394382  0.61894028    -0.12170
C394        C  0.38587814  0.38574019  0.59715422    -0.13730
C395        C  0.11408658  0.38583044  0.86897802    -0.12170
C396        C  0.13593148  0.36403664  0.84720104    -0.13730
C397        C  0.36432313  0.13588336  0.84721829    -0.12170
C398        C  0.38627635  0.11409980  0.86890879    -0.13730
C399        C  0.38590975  0.38589235  0.86894533    -0.12170
C400        C  0.36410779  0.36410369  0.84712657    -0.13730
O401        O  0.29171686  0.80002968  0.38138460    -0.73330
O402        O  0.20845749  0.69999586  0.38147932    -0.73360
O403        O  0.30008510  0.70836873  0.38144290    -0.73410
O404        O  0.20011153  0.79163493  0.38140688    -0.73460
O405        O  0.22523927  0.80102549  0.32023567    -0.73390
O406        O  0.27490961  0.69884283  0.32032327    -0.73370
O407        O  0.19900434  0.72507850  0.32030470    -0.73350
O408        O  0.30116999  0.77481634  0.32026924    -0.73410
Ni409      Ni  0.25009388  0.75001001  0.38712243     1.25410
Ni410      Ni  0.25008329  0.74994080  0.31848216     1.25360
C411        C  0.31177000  0.80204365  0.34573215     0.88850
C412        C  0.18839974  0.69791783  0.34583467     0.88780
C413        C  0.30210599  0.68827258  0.34581310     0.88810
C414        C  0.19806868  0.81165017  0.34573710     0.88980
O415        O  0.39825026  0.79989154  0.19139077    -0.73330
O416        O  0.39828078  0.69995291  0.27476236    -0.73360
O417        O  0.39824904  0.70823588  0.18311313    -0.73410
O418        O  0.39828356  0.79160493  0.28303391    -0.73460
O419        O  0.33712271  0.80101142  0.25793264    -0.73390
O420        O  0.33712083  0.69880086  0.20828554    -0.73370
O421        O  0.33713615  0.72507776  0.28420648    -0.73350
O422        O  0.33711318  0.77473894  0.18199240    -0.73410
Ni423      Ni  0.40395284  0.74992130  0.23307332     1.25410
Ni424      Ni  0.33532409  0.74990885  0.23310390     1.25360
C425        C  0.36260358  0.80191777  0.17134836     0.88850
C426        C  0.36264450  0.69791043  0.29482748     0.88780
C427        C  0.36261059  0.68817496  0.18110271     0.88810
C428        C  0.36263953  0.81164886  0.28508457     0.88980
O429        O  0.27490385  0.83711318  0.28419185    -0.73330
O430        O  0.22517748  0.83699050  0.18200964    -0.73360
O431        O  0.30112449  0.83706120  0.20821122    -0.73410
O432        O  0.19897543  0.83704174  0.25795530    -0.73460
O433        O  0.20842515  0.89820987  0.28306398    -0.73390
O434        O  0.29162225  0.89816981  0.18299660    -0.73370
O435        O  0.20001665  0.89813957  0.19142968    -0.73350
O436        O  0.30004796  0.89824384  0.27464752    -0.73410
Ni437      Ni  0.25004925  0.83524816  0.23309333     1.25410
Ni438      Ni  0.25002618  0.90388666  0.23303172     1.25360
C439        C  0.30209875  0.86261740  0.29474663     0.88850
C440        C  0.19797960  0.86247151  0.17140503     0.88780
C441        C  0.31168796  0.86252706  0.18097599     0.88810
C442        C  0.18838380  0.86255461  0.28513330     0.88980
O443        O  0.16292527  0.80093742  0.20830410    -0.73330
O444        O  0.16292482  0.69878135  0.25805832    -0.73360
O445        O  0.16290607  0.72498040  0.18209620    -0.73410
O446        O  0.16293975  0.77475036  0.28425935    -0.73460
O447        O  0.10181470  0.79990570  0.27481069    -0.73390
O448        O  0.10178255  0.69983088  0.19159514    -0.73370
O449        O  0.10181069  0.70826430  0.28323828    -0.73350
O450        O  0.10178400  0.79146979  0.18318177    -0.73410
Ni451      Ni  0.16472509  0.74986120  0.23317914     1.25410
Ni452      Ni  0.09610467  0.74986630  0.23320827     1.25360
C453        C  0.13742327  0.81152386  0.18112201     0.88850
C454        C  0.13744930  0.68820717  0.28527307     0.88780
C455        C  0.13741346  0.69778152  0.17151992     0.88810
C456        C  0.13746141  0.80195597  0.29485245     0.88980
O457        O  0.20840181  0.60154893  0.18324285    -0.73330
O458        O  0.29167786  0.60163640  0.28323833    -0.73360
O459        O  0.20005457  0.60161542  0.27489444    -0.73410
O460        O  0.30002240  0.60157327  0.19158688    -0.73460
O461        O  0.27486045  0.66270598  0.18209137    -0.73390
O462        O  0.22521317  0.66276202  0.28430991    -0.73370
O463        O  0.30112676  0.66275842  0.25802902    -0.73350
O464        O  0.19894432  0.66270673  0.20836477    -0.73410
Ni465      Ni  0.25003973  0.59589790  0.23324443     1.25410
Ni466      Ni  0.25003457  0.66453572  0.23319770     1.25360
C467        C  0.18834372  0.63719399  0.18118831     0.88850
C468        C  0.31173251  0.63728799  0.28524175     0.88780
C469        C  0.19802727  0.63727568  0.29493587     0.88810
C470        C  0.30204822  0.63720878  0.17150186     0.88980
O471        O  0.22516523  0.69872701  0.14604188    -0.73330
O472        O  0.27484477  0.80093509  0.14595205    -0.73360
O473        O  0.19892315  0.77466788  0.14600440    -0.73410
O474        O  0.30109080  0.72498910  0.14599086    -0.73460
O475        O  0.29161721  0.69978318  0.08487131    -0.73390
O476        O  0.20834987  0.79978892  0.08484248    -0.73370
O477        O  0.29996557  0.79143610  0.08479886    -0.73350
O478        O  0.20000026  0.70813660  0.08489810    -0.73410
Ni479      Ni  0.25000721  0.74983093  0.14779883     1.25410
Ni480      Ni  0.24998184  0.74978207  0.07915847     1.25360
C481        C  0.19797504  0.68810264  0.12056132     0.88850
C482        C  0.30201239  0.81152480  0.12043039     0.88780
C483        C  0.18831104  0.80184496  0.12050030     0.88810
C484        C  0.31168046  0.69777437  0.12051488     0.88980
C485        C  0.33769553  0.83762473  0.32067568    -0.01390
C486        C  0.41275606  0.91231853  0.39522311    -0.01390
C487        C  0.33767400  0.66232780  0.32080434    -0.01390
C488        C  0.41241888  0.58760224  0.39556750    -0.01390
C489        C  0.16248393  0.83756316  0.32074658    -0.01390
C490        C  0.08797369  0.91230116  0.39566863    -0.01390
C491        C  0.33760034  0.83749162  0.14538642    -0.01390
C492        C  0.41233657  0.91220058  0.07053595    -0.01390
C493        C  0.16245640  0.66230232  0.32087084    -0.01390
C494        C  0.08763547  0.58756831  0.39556785    -0.01390
C495        C  0.16239315  0.83744164  0.14551029    -0.01390
C496        C  0.08755852  0.91218645  0.07090730    -0.01390
C497        C  0.33761686  0.66220574  0.14554105    -0.01390
C498        C  0.41240685  0.58747924  0.07083380    -0.01390
C499        C  0.16240234  0.66217568  0.14559126    -0.01390
C500        C  0.08762228  0.58745069  0.07084097    -0.01390
O501        O  0.08711006  0.55094636  0.00803570    -0.73330
O502        O  0.08738864  0.94875773  0.45847994    -0.73360
O503        O  0.08715598  0.97498598  0.03441303    -0.73410
O504        O  0.08710686  0.52476317  0.43206823    -0.73460
O505        O  0.14824821  0.54988560  0.44153343    -0.73390
O506        O  0.14831057  0.94983461  0.02509646    -0.73370
O507        O  0.14855521  0.95826062  0.43344795    -0.73350
O508        O  0.14824096  0.54146616  0.03317065    -0.73410
Ni509      Ni  0.08551151  0.99985400  0.48332976     1.25410
Ni510      Ni  0.15412758  0.99986431  0.48350657     1.25360
C511        C  0.11260596  0.56152865  0.03522835     0.88850
C512        C  0.11292646  0.93818906  0.43132453     0.88780
C513        C  0.11261580  0.94778731  0.04505794     0.88810
C514        C  0.11260932  0.55195035  0.42148178     0.88980
O515        O  0.02485873  0.58699948  0.03430423    -0.73330
O516        O  0.47518258  0.58707922  0.43210422    -0.73360
O517        O  0.05110518  0.58704832  0.45835364    -0.73410
O518        O  0.44893796  0.58702998  0.00805183    -0.73460
O519        O  0.45840373  0.64815424  0.03325453    -0.73390
O520        O  0.04166222  0.64820932  0.43323775    -0.73370
O521        O  0.45004239  0.64822024  0.44160822    -0.73350
O522        O  0.05002289  0.64814481  0.02488658    -0.73410
Ni523      Ni  0.00002081  0.58523745  0.48320217     1.25410
Ni524      Ni  0.00003409  0.65387718  0.48325102     1.25360
C525        C  0.05204942  0.61248240  0.04492278     0.88850
C526        C  0.44800142  0.61258644  0.42152158     0.88780
C527        C  0.06170855  0.61255742  0.43117538     0.88810
C528        C  0.43834353  0.61250670  0.03526421     0.88980
O529        O  0.47516479  0.55093404  0.07032467    -0.73330
O530        O  0.02479552  0.94872072  0.07032410    -0.73360
O531        O  0.44887966  0.97498638  0.07015777    -0.73410
O532        O  0.05108497  0.52466946  0.07031133    -0.73460
O533        O  0.04162314  0.54979016  0.13146879    -0.73270
O534        O  0.45819209  0.94979656  0.13130796    -0.73370
O535        O  0.04981831  0.95814848  0.13152087    -0.73350
O536        O  0.45000334  0.54143792  0.13145961    -0.73410
Ni537      Ni  0.49997135  0.99982778  0.06848694     1.25410
Ni538      Ni  0.49981835  0.99979403  0.13712631     1.25360
C539        C  0.44797747  0.56152244  0.09582536     0.88850
C540        C  0.05192901  0.93810512  0.09586719     0.88780
C541        C  0.43822143  0.94777809  0.09561194     0.88810
C542        C  0.06168263  0.55184768  0.09582303     0.88980
O543        O  0.35177027  0.54989166  0.02481820    -0.73330
O544        O  0.35205787  0.94996980  0.44109934    -0.73360
O545        O  0.35181408  0.95824241  0.03276491    -0.73410
O546        O  0.35177228  0.54159398  0.43316744    -0.73460
O547        O  0.41290267  0.55102090  0.45832324    -0.73390
O548        O  0.41301116  0.94878415  0.00777999    -0.73370
O549        O  0.41325493  0.97505554  0.43185021    -0.73350
O550        O  0.41289752  0.52472540  0.03424881    -0.73410
Ni551      Ni  0.34627768  0.99992980  0.48277630     1.25410
Ni552      Ni  0.41490945  0.99989081  0.48295118     1.25360
C553        C  0.38741084  0.55191093  0.04487254     0.88850
C554        C  0.38775410  0.94791299  0.42114331     0.88780
C555        C  0.38743940  0.93816937  0.03489253     0.88810
C556        C  0.38741564  0.56164653  0.43114074     0.88980
O557        O  0.45839562  0.55000253  0.33488879    -0.73330
O558        O  0.04219271  0.94999346  0.33493589    -0.73360
O559        O  0.45055765  0.95835538  0.33467683    -0.73410
O560        O  0.05001493  0.54161739  0.33487891    -0.73460
O561        O  0.02486118  0.55104728  0.39602653    -0.73390
O562        O  0.47553597  0.94881420  0.39586922    -0.73370
O563        O  0.05143733  0.97506430  0.39615697    -0.73350
O564        O  0.44893531  0.52481239  0.39601894    -0.73410
Ni565      Ni  0.50001201  0.49999061  0.32915714     1.25410
Ni566      Ni  0.50036694  0.99992100  0.39779496     1.25360
C567        C  0.43834333  0.55202280  0.37054079     0.88850
C568        C  0.06212044  0.94791449  0.37065093     0.88780
C569        C  0.44841177  0.93825067  0.37029776     0.88810
C570        C  0.05205185  0.56165799  0.37053907     0.88980
O571        O  0.05115835  0.91273020  0.00805992    -0.73330
O572        O  0.44911777  0.91273294  0.45812059    -0.73360
O573        O  0.47518844  0.91269085  0.03414484    -0.73410
O574        O  0.02511738  0.91277599  0.43206773    -0.73460
O575        O  0.05023832  0.85161972  0.44152685    -0.73390
O576        O  0.45004373  0.85156712  0.02456364    -0.73370
O577        O  0.45864882  0.85162501  0.43291969    -0.73350
O578        O  0.04165211  0.85156100  0.03314218    -0.73410
Ni579      Ni  0.50014222  0.91453373  0.48309815     1.25410
Ni580      Ni  0.50014387  0.84589713  0.48303593     1.25360
C581        C  0.06170173  0.88720970  0.03524859     0.88850
C582        C  0.43859615  0.88727301  0.43086326     0.88780
C583        C  0.44797064  0.88719539  0.04466075     0.88810
C584        C  0.05232644  0.88728697  0.42150728     0.88980
C585        C  0.11410619  0.61389918  0.09732829    -0.12170
C586        C  0.13592303  0.63569235  0.11913370    -0.13730
C587        C  0.36409939  0.63572925  0.11909301    -0.12170
C588        C  0.38592778  0.61393363  0.09730787    -0.13730
C589        C  0.11400852  0.88569662  0.09735965    -0.12170
C590        C  0.13587384  0.86389228  0.11908831    -0.13730
C591        C  0.13597649  0.63584775  0.34735480    -0.12170
C592        C  0.11413541  0.61404830  0.36912963    -0.13730
C593        C  0.36404385  0.86394213  0.11884505    -0.12170
C594        C  0.38582254  0.88572884  0.09698548    -0.13730
C595        C  0.11440469  0.88584110  0.36917289    -0.12170
C596        C  0.13609750  0.86403753  0.34727211    -0.13730
C597        C  0.36415702  0.63588127  0.34728656    -0.12170
C598        C  0.38595792  0.61408755  0.36910164    -0.13730
C599        C  0.38622732  0.88588178  0.36875055    -0.12170
C600        C  0.36427511  0.86410308  0.34705637    -0.13730
O601        O  0.29171687  0.80002968  0.88138462    -0.73330
O602        O  0.20845750  0.69999587  0.88147936    -0.73360
O603        O  0.30008511  0.70836873  0.88144292    -0.73410
O604        O  0.20011155  0.79163493  0.88140692    -0.73460
O605        O  0.22523928  0.80102550  0.82023571    -0.73390
O606        O  0.27490961  0.69884283  0.82032330    -0.73370
O607        O  0.19900434  0.72507850  0.82030474    -0.73350
O608        O  0.30117000  0.77481634  0.82026927    -0.73410
Ni609      Ni  0.25009390  0.75001001  0.88712247     1.25410
Ni610      Ni  0.25008330  0.74994080  0.81848220     1.25360
C611        C  0.31177002  0.80204365  0.84573217     0.88850
C612        C  0.18839975  0.69791783  0.84583471     0.88780
C613        C  0.30210600  0.68827258  0.84581313     0.88810
C614        C  0.19806869  0.81165018  0.84573713     0.88980
O615        O  0.39825026  0.79989154  0.69139079    -0.73330
O616        O  0.39828078  0.69995291  0.77476237    -0.73360
O617        O  0.39824904  0.70823587  0.68311315    -0.73410
O618        O  0.39828357  0.79160493  0.78303393    -0.73460
O619        O  0.33712272  0.80101142  0.75793266    -0.73390
O620        O  0.33712083  0.69880086  0.70828557    -0.73370
O621        O  0.33713615  0.72507776  0.78420651    -0.73350
O622        O  0.33711318  0.77473894  0.68199242    -0.73410
Ni623      Ni  0.40395284  0.74992130  0.73307334     1.25410
Ni624      Ni  0.33532409  0.74990885  0.73310392     1.25360
C625        C  0.36260358  0.80191777  0.67134838     0.88850
C626        C  0.36264451  0.69791043  0.79482750     0.88780
C627        C  0.36261058  0.68817496  0.68110273     0.88810
C628        C  0.36263954  0.81164886  0.78508459     0.88980
O629        O  0.27490386  0.83711318  0.78419187    -0.73330
O630        O  0.22517748  0.83699051  0.68200966    -0.73360
O631        O  0.30112450  0.83706120  0.70821124    -0.73410
O632        O  0.19897544  0.83704175  0.75795533    -0.73460
O633        O  0.20842517  0.89820988  0.78306401    -0.73390
O634        O  0.29162225  0.89816981  0.68299663    -0.73370
O635        O  0.20001666  0.89813958  0.69142972    -0.73350
O636        O  0.30004797  0.89824384  0.77464754    -0.73410
Ni637      Ni  0.25004925  0.83524816  0.73309336     1.25410
Ni638      Ni  0.25002618  0.90388667  0.73303175     1.25360
C639        C  0.30209876  0.86261740  0.79474666     0.88850
C640        C  0.19797960  0.86247152  0.67140507     0.88780
C641        C  0.31168796  0.86252707  0.68097601     0.88810
C642        C  0.18838381  0.86255462  0.78513334     0.88980
O643        O  0.16292527  0.80093743  0.70830413    -0.73330
O644        O  0.16292482  0.69878136  0.75805836    -0.73360
O645        O  0.16290606  0.72498041  0.68209623    -0.73410
O646        O  0.16293976  0.77475037  0.78425939    -0.73460
O647        O  0.10181471  0.79990571  0.77481074    -0.73390
O648        O  0.10178254  0.69983089  0.69159518    -0.73370
O649        O  0.10181070  0.70826431  0.78323832    -0.73350
O650        O  0.10178400  0.79146980  0.68318182    -0.73410
Ni651      Ni  0.16472509  0.74986121  0.73317918     1.25410
Ni652      Ni  0.09610467  0.74986631  0.73320832     1.25360
C653        C  0.13742326  0.81152387  0.68112205     0.88850
C654        C  0.13744931  0.68820718  0.78527311     0.88780
C655        C  0.13741345  0.69778153  0.67151996     0.88810
C656        C  0.13746143  0.80195598  0.79485249     0.88980
O657        O  0.20840180  0.60154893  0.68324289    -0.73330
O658        O  0.29167786  0.60163640  0.78323836    -0.73360
O659        O  0.20005457  0.60161542  0.77489448    -0.73410
O660        O  0.30002239  0.60157327  0.69158691    -0.73460
O661        O  0.27486045  0.66270598  0.68209139    -0.73390
O662        O  0.22521318  0.66276202  0.78430994    -0.73370
O663        O  0.30112676  0.66275842  0.75802905    -0.73350
O664        O  0.19894431  0.66270673  0.70836481    -0.73410
Ni665      Ni  0.25003972  0.59589791  0.73324446     1.25410
Ni666      Ni  0.25003457  0.66453572  0.73319773     1.25360
C667        C  0.18834371  0.63719400  0.68118834     0.88850
C668        C  0.31173252  0.63728799  0.78524177     0.88780
C669        C  0.19802728  0.63727569  0.79493590     0.88810
C670        C  0.30204821  0.63720878  0.67150189     0.88980
O671        O  0.22516522  0.69872702  0.64604192    -0.73330
O672        O  0.27484477  0.80093510  0.64595208    -0.73360
O673        O  0.19892315  0.77466789  0.64600444    -0.73410
O674        O  0.30109079  0.72498911  0.64599088    -0.73460
O675        O  0.29161720  0.69978318  0.58487134    -0.73390
O676        O  0.20834986  0.79978893  0.58484252    -0.73370
O677        O  0.29996556  0.79143610  0.58479889    -0.73350
O678        O  0.20000025  0.70813661  0.58489813    -0.73410
Ni679      Ni  0.25000720  0.74983094  0.64779886     1.25410
Ni680      Ni  0.24998183  0.74978208  0.57915850     1.25360
C681        C  0.19797503  0.68810265  0.62056136     0.88850
C682        C  0.30201239  0.81152481  0.62043042     0.88780
C683        C  0.18831103  0.80184496  0.62050034     0.88810
C684        C  0.31168046  0.69777437  0.62051490     0.88980
C685        C  0.33769554  0.83762473  0.82067570    -0.01390
C686        C  0.41275607  0.91231852  0.89522312    -0.01390
C687        C  0.33767401  0.66232780  0.82080437    -0.01390
C688        C  0.41241889  0.58760224  0.89556750    -0.01390
C689        C  0.16248395  0.83756317  0.82074661    -0.01390
C690        C  0.08797370  0.91230117  0.89566864    -0.01390
C691        C  0.33760034  0.83749162  0.64538644    -0.01390
C692        C  0.41233657  0.91220058  0.57053594    -0.01390
C693        C  0.16245641  0.66230233  0.82087088    -0.01390
C694        C  0.08763546  0.58756831  0.89556786    -0.01390
C695        C  0.16239314  0.83744165  0.64551032    -0.01390
C696        C  0.08755852  0.91218644  0.57090729    -0.01390
C697        C  0.33761685  0.66220574  0.64554108    -0.01390
C698        C  0.41240684  0.58747924  0.57083381    -0.01390
C699        C  0.16240233  0.66217568  0.64559130    -0.01390
C700        C  0.08762229  0.58745070  0.57084097    -0.01390
O701        O  0.08711007  0.55094636  0.50803570    -0.73330
O702        O  0.08738865  0.94875774  0.95847994    -0.73360
O703        O  0.08715598  0.97498598  0.53441302    -0.73410
O704        O  0.08710685  0.52476316  0.93206823    -0.73460
O705        O  0.14824820  0.54988560  0.94153343    -0.73390
O706        O  0.14831056  0.94983460  0.52509645    -0.73370
O707        O  0.14855521  0.95826063  0.93344795    -0.73350
O708        O  0.14824097  0.54146616  0.53317065    -0.73410
Ni709      Ni  0.08551151  0.99985401  0.98332976     1.25410
Ni710      Ni  0.15412758  0.99986432  0.98350658     1.25360
C711        C  0.11260597  0.56152865  0.53522835     0.88850
C712        C  0.11292647  0.93818907  0.93132454     0.88780
C713        C  0.11261579  0.94778730  0.54505793     0.88810
C714        C  0.11260931  0.55195034  0.92148178     0.88980
O715        O  0.02485873  0.58699948  0.53430422    -0.73330
O716        O  0.47518259  0.58707922  0.93210422    -0.73360
O717        O  0.05110518  0.58704832  0.95835364    -0.73410
O718        O  0.44893795  0.58702998  0.50805183    -0.73460
O719        O  0.45840372  0.64815425  0.53325453    -0.73390
O720        O  0.04166222  0.64820932  0.93323775    -0.73370
O721        O  0.45004241  0.64822024  0.94160822    -0.73350
O722        O  0.05002290  0.64814482  0.52488658    -0.73410
Ni723      Ni  0.00002081  0.58523745  0.98320218     1.25410
Ni724      Ni  0.00003408  0.65387718  0.98325103     1.25360
C725        C  0.05204943  0.61248240  0.54492278     0.88850
C726        C  0.44800143  0.61258643  0.92152158     0.88780
C727        C  0.06170854  0.61255742  0.93117539     0.88810
C728        C  0.43834352  0.61250670  0.53526422     0.88980
O729        O  0.47516479  0.55093404  0.57032466    -0.73330
O730        O  0.02479552  0.94872072  0.57032409    -0.73360
O731        O  0.44887967  0.97498637  0.57015776    -0.73410
O732        O  0.05108498  0.52466947  0.57031132    -0.73460
O733        O  0.04162314  0.54979016  0.63146878    -0.73270
O734        O  0.45819210  0.94979655  0.63130796    -0.73370
O735        O  0.04981830  0.95814847  0.63152086    -0.73350
O736        O  0.45000333  0.54143792  0.63145961    -0.73410
Ni737      Ni  0.49997136  0.99982778  0.56848693     1.25410
Ni738      Ni  0.49981836  0.99979402  0.63712630     1.25360
C739        C  0.44797747  0.56152244  0.59582535     0.88850
C740        C  0.05192901  0.93810512  0.59586718     0.88780
C741        C  0.43822144  0.94777809  0.59561193     0.88810
C742        C  0.06168263  0.55184769  0.59582302     0.88980
O743        O  0.35177026  0.54989166  0.52481821    -0.73330
O744        O  0.35205787  0.94996979  0.94109934    -0.73360
O745        O  0.35181408  0.95824241  0.53276490    -0.73410
O746        O  0.35177230  0.54159397  0.93316744    -0.73460
O747        O  0.41290269  0.55102090  0.95832324    -0.73390
O748        O  0.41301116  0.94878415  0.50777998    -0.73370
O749        O  0.41325493  0.97505553  0.93185022    -0.73350
O750        O  0.41289751  0.52472540  0.53424881    -0.73410
Ni751      Ni  0.34627767  0.99992980  0.98277631     1.25410
Ni752      Ni  0.41490945  0.99989081  0.98295118     1.25360
C753        C  0.38741083  0.55191093  0.54487254     0.88850
C754        C  0.38775410  0.94791299  0.92114332     0.88780
C755        C  0.38743940  0.93816937  0.53489253     0.88810
C756        C  0.38741565  0.56164653  0.93114074     0.88980
O757        O  0.45839563  0.55000252  0.83488879    -0.73330
O758        O  0.04219271  0.94999346  0.83493590    -0.73360
O759        O  0.45055766  0.95835537  0.83467684    -0.73410
O760        O  0.05001493  0.54161738  0.83487891    -0.73460
O761        O  0.02486118  0.55104728  0.89602654    -0.73390
O762        O  0.47553597  0.94881420  0.89586923    -0.73370
O763        O  0.05143733  0.97506431  0.89615698    -0.73350
O764        O  0.44893533  0.52481239  0.89601894    -0.73410
Ni765      Ni  0.50001203  0.49999060  0.82915714     1.25410
Ni766      Ni  0.50036694  0.99992100  0.89779497     1.25360
C767        C  0.43834335  0.55202280  0.87054079     0.88850
C768        C  0.06212044  0.94791449  0.87065094     0.88780
C769        C  0.44841178  0.93825066  0.87029777     0.88810
C770        C  0.05205184  0.56165798  0.87053907     0.88980
O771        O  0.05115834  0.91273019  0.50805991    -0.73330
O772        O  0.44911777  0.91273294  0.95812060    -0.73360
O773        O  0.47518844  0.91269085  0.53414483    -0.73410
O774        O  0.02511738  0.91277599  0.93206774    -0.73460
O775        O  0.05023833  0.85161973  0.94152686    -0.73390
O776        O  0.45004373  0.85156712  0.52456362    -0.73370
O777        O  0.45864882  0.85162501  0.93291970    -0.73350
O778        O  0.04165210  0.85156099  0.53314218    -0.73410
Ni779      Ni  0.50014222  0.91453373  0.98309816     1.25410
Ni780      Ni  0.50014387  0.84589713  0.98303595     1.25360
C781        C  0.06170173  0.88720970  0.53524859     0.88850
C782        C  0.43859616  0.88727301  0.93086327     0.88780
C783        C  0.44797064  0.88719538  0.54466074     0.88810
C784        C  0.05232645  0.88728698  0.92150729     0.88980
C785        C  0.11410619  0.61389918  0.59732830    -0.12170
C786        C  0.13592303  0.63569235  0.61913372    -0.13730
C787        C  0.36409938  0.63572925  0.61909303    -0.12170
C788        C  0.38592777  0.61393363  0.59730788    -0.13730
C789        C  0.11400852  0.88569662  0.59735966    -0.12170
C790        C  0.13587383  0.86389228  0.61908833    -0.13730
C791        C  0.13597649  0.63584776  0.84735483    -0.12170
C792        C  0.11413540  0.61404830  0.86912965    -0.13730
C793        C  0.36404385  0.86394214  0.61884506    -0.12170
C794        C  0.38582255  0.88572884  0.59698548    -0.13730
C795        C  0.11440470  0.88584111  0.86917291    -0.12170
C796        C  0.13609752  0.86403754  0.84727214    -0.13730
C797        C  0.36415703  0.63588127  0.84728658    -0.12170
C798        C  0.38595793  0.61408754  0.86910164    -0.13730
C799        C  0.38622733  0.88588177  0.86875056    -0.12170
C800        C  0.36427512  0.86410307  0.84705638    -0.13730
O801        O  0.79168888  0.30003330  0.38137983    -0.73330
O802        O  0.70848426  0.19999439  0.38147571    -0.73360
O803        O  0.80011191  0.20837791  0.38145368    -0.73410
O804        O  0.70008388  0.29162795  0.38141634    -0.73460
O805        O  0.72520237  0.30103109  0.32024735    -0.73390
O806        O  0.77494587  0.19883746  0.32033658    -0.73370
O807        O  0.69901788  0.22508873  0.32030361    -0.73350
O808        O  0.80115564  0.27480647  0.32026780    -0.73410
Ni809      Ni  0.75009335  0.25001115  0.38712584     1.25410
Ni810      Ni  0.75008294  0.24994091  0.31848646     1.25360
C811        C  0.81173454  0.30204045  0.34572530     0.88850
C812        C  0.68843413  0.19792217  0.34582892     0.88780
C813        C  0.80214976  0.18827217  0.34582775     0.88810
C814        C  0.69802437  0.31165176  0.34574985     0.88980
O815        O  0.89823324  0.29990563  0.19140266    -0.73330
O816        O  0.89830856  0.19997006  0.27475292    -0.73360
O817        O  0.89827328  0.20825483  0.18309494    -0.73410
O818        O  0.89826555  0.29161914  0.28304365    -0.73460
O819        O  0.83710848  0.30100811  0.25793188    -0.73390
O820        O  0.83715439  0.19878819  0.20826801    -0.73370
O821        O  0.83715690  0.22507827  0.28420678    -0.73350
O822        O  0.83710285  0.27473042  0.18199889    -0.73410
Ni823      Ni  0.90395766  0.24993878  0.23307176     1.25410
Ni824      Ni  0.83533049  0.24989943  0.23310158     1.25360
C825        C  0.86258368  0.30191986  0.17136687     0.88850
C826        C  0.86267638  0.19791999  0.29482212     0.88780
C827        C  0.86264303  0.18817774  0.18107490     0.88810
C828        C  0.86261562  0.31165634  0.28509010     0.88980
O829        O  0.77485799  0.33708047  0.28417219    -0.73330
O830        O  0.72514127  0.33699469  0.18199038    -0.73360
O831        O  0.80107306  0.33703408  0.20821576    -0.73410
O832        O  0.69892390  0.33704080  0.25795050    -0.73460
O833        O  0.70836774  0.39820689  0.28305999    -0.73390
O834        O  0.79159294  0.39815680  0.18301794    -0.73370
O835        O  0.69997692  0.39813850  0.19141460    -0.73350
O836        O  0.79998309  0.39822817  0.27466032    -0.73410
Ni837      Ni  0.74999871  0.33523596  0.23308352     1.25410
Ni838      Ni  0.74997834  0.40387725  0.23303444     1.25360
C839        C  0.80203790  0.36259380  0.29474315     0.88850
C840        C  0.69794547  0.36247531  0.17137930     0.88780
C841        C  0.81165481  0.36251124  0.18099959     0.88810
C842        C  0.68832769  0.36255170  0.28513014     0.88980
O843        O  0.66289165  0.30094809  0.20828498    -0.73330
O844        O  0.66293828  0.19878365  0.25805851    -0.73360
O845        O  0.66291644  0.22498666  0.18210302    -0.73410
O846        O  0.66291831  0.27474948  0.28425885    -0.73460
O847        O  0.60178649  0.29988841  0.27479950    -0.73390
O848        O  0.60179948  0.19981490  0.19160748    -0.73370
O849        O  0.60182794  0.20825009  0.28324848    -0.73350
O850        O  0.60175961  0.29144871  0.18316224    -0.73410
Ni851      Ni  0.66471833  0.24986920  0.23317658     1.25410
Ni852      Ni  0.59609949  0.24984775  0.23320614     1.25360
C853        C  0.63739073  0.31151878  0.18109252     0.88850
C854        C  0.63747232  0.18819946  0.28527974     0.88780
C855        C  0.63743340  0.19777712  0.17153911     0.88810
C856        C  0.63742901  0.30194651  0.29484544     0.88980
O857        O  0.70843091  0.10155982  0.18326746    -0.73330
O858        O  0.79173467  0.10163914  0.28323814    -0.73360
O859        O  0.70011874  0.10163073  0.27491046    -0.73410
O860        O  0.80006188  0.10157232  0.19157539    -0.73460
O861        O  0.77489650  0.16269959  0.18207442    -0.73390
O862        O  0.72525838  0.16279442  0.28429241    -0.73370
O863        O  0.80117804  0.16275841  0.25802659    -0.73350
O864        O  0.69899558  0.16273227  0.20837112    -0.73410
Ni865      Ni  0.75008711  0.09590615  0.23325075     1.25410
Ni866      Ni  0.75008480  0.16454667  0.23319008     1.25360
C867        C  0.68837678  0.13720773  0.18121418     0.88850
C868        C  0.81178822  0.13729061  0.28524164     0.88780
C869        C  0.69808727  0.13729932  0.29493484     0.88810
C870        C  0.80208216  0.13720251  0.17147888     0.88980
O871        O  0.72518220  0.19872256  0.14603713    -0.73330
O872        O  0.77482790  0.30093667  0.14594623    -0.73360
O873        O  0.69891682  0.27466812  0.14599478    -0.73410
O874        O  0.80109682  0.22498592  0.14598243    -0.73460
O875        O  0.79162324  0.19978768  0.08485849    -0.73390
O876        O  0.70834416  0.29978054  0.08482828    -0.73370
O877        O  0.79996658  0.29143776  0.08480253    -0.73350
O878        O  0.69999959  0.20813096  0.08490256    -0.73410
Ni879      Ni  0.75000714  0.24982954  0.14779223     1.25410
Ni880      Ni  0.74998201  0.24978004  0.07915339     1.25360
C881        C  0.69798388  0.18809756  0.12056750     0.88850
C882        C  0.80200377  0.31152657  0.12043539     0.88780
C883        C  0.68830117  0.30183918  0.12048308     0.88810
C884        C  0.81169024  0.19777684  0.12049931     0.88980
C885        C  0.83763503  0.33761786  0.32067610    -0.01390
C886        C  0.91237927  0.41233368  0.39544373    -0.01390
C887        C  0.83773620  0.16232960  0.32080682    -0.01390
C888        C  0.91280095  0.08761693  0.39534578    -0.01390
C889        C  0.66242143  0.33756193  0.32074649    -0.01390
C890        C  0.58759361  0.41228761  0.39544673    -0.01390
C891        C  0.83757941  0.33748668  0.14541795    -0.01390
C892        C  0.91236566  0.41221443  0.07070866    -0.01390
C893        C  0.66251583  0.16230968  0.32087314    -0.01390
C894        C  0.58801099  0.08755260  0.39578825    -0.01390
C895        C  0.66236458  0.33744025  0.14547055    -0.01390
C896        C  0.58758019  0.41216788  0.07071994    -0.01390
C897        C  0.83764527  0.16220426  0.14550349    -0.01390
C898        C  0.91238648  0.08749780  0.07064761    -0.01390
C899        C  0.66242341  0.16217785  0.14562430    -0.01390
C900        C  0.58759217  0.08743642  0.07101448    -0.01390
O901        O  0.58723960  0.05093322  0.00821260    -0.73330
O902        O  0.58708522  0.44879498  0.45824894    -0.73360
O903        O  0.58708981  0.47497539  0.03421639    -0.73410
O904        O  0.58747314  0.02472924  0.43224562    -0.73460
O905        O  0.64855198  0.04991189  0.44190100    -0.73390
O906        O  0.64821826  0.44982461  0.02474738    -0.73370
O907        O  0.64822455  0.45824725  0.43311147    -0.73350
O908        O  0.64830428  0.04146380  0.03351977    -0.73410
Ni909      Ni  0.58529755  0.49987047  0.48314228     1.25410
Ni910      Ni  0.65392232  0.49985479  0.48314031     1.25360
C911        C  0.61265953  0.06151705  0.03547369     0.88850
C912        C  0.61258019  0.43820078  0.43105727     0.88780
C913        C  0.61257726  0.44777515  0.04480234     0.88810
C914        C  0.61297056  0.05195155  0.42174493     0.88980
O915        O  0.52491146  0.08698361  0.03433814    -0.73330
O916        O  0.97547695  0.08709040  0.43201498    -0.73360
O917        O  0.55132277  0.08701286  0.45846127    -0.73410
O918        O  0.94903331  0.08706075  0.00792196    -0.73460
O919        O  0.95847637  0.14816895  0.03316195    -0.73390
O920        O  0.54197320  0.14819607  0.43334668    -0.73370
O921        O  0.95032586  0.14823210  0.44147963    -0.73350
O922        O  0.55010381  0.14813329  0.02499632    -0.73410
Ni923      Ni  0.50018214  0.08523414  0.48318458     1.25410
Ni924      Ni  0.50022080  0.15387671  0.48324822     1.25360
C925        C  0.55208071  0.11246416  0.04502145     0.88850
C926        C  0.94832513  0.11260380  0.42137638     0.88780
C927        C  0.56200694  0.11253455  0.43132776     0.88810
C928        C  0.93839904  0.11252927  0.03512794     0.88980
O929        O  0.97513635  0.05093252  0.07025272    -0.73330
O930        O  0.52482497  0.44872284  0.07025027    -0.73360
O931        O  0.94891023  0.47498839  0.07026481    -0.73410
O932        O  0.55105437  0.02466671  0.07042043    -0.73460
O933        O  0.54146772  0.04979640  0.13155556    -0.73270
O934        O  0.95834692  0.44979057  0.13139358    -0.73370
O935        O  0.54996739  0.45813556  0.13140290    -0.73350
O936        O  0.94985447  0.04145080  0.13134282    -0.73410
Ni937      Ni  0.99999648  0.49983048  0.06848596     1.25410
Ni938      Ni  0.99998501  0.49978456  0.13712560     1.25360
C939        C  0.94790381  0.06153055  0.09570094     0.88850
C940        C  0.55200346  0.43809730  0.09574132     0.88780
C941        C  0.93830077  0.44778099  0.09574031     0.88810
C942        C  0.56160264  0.05184468  0.09595270     0.88980
O943        O  0.85186550  0.04990140  0.02447010    -0.73330
O944        O  0.85175111  0.44994124  0.44146751    -0.73360
O945        O  0.85174831  0.45824436  0.03311469    -0.73410
O946        O  0.85210619  0.04160922  0.43283271    -0.73460
O947        O  0.91321107  0.05098214  0.45809117    -0.73390
O948        O  0.91287884  0.44879678  0.00795569    -0.73370
O949        O  0.91288441  0.47509041  0.43202628    -0.73350
O950        O  0.91296735  0.02473703  0.03405144    -0.73410
Ni951      Ni  0.84606896  0.49991922  0.48314226     1.25410
Ni952      Ni  0.91469173  0.49990753  0.48313837     1.25360
C953        C  0.88745213  0.05192295  0.04461740     0.88850
C954        C  0.88738992  0.44791074  0.42140634     0.88780
C955        C  0.88738363  0.43818035  0.03513754     0.88810
C956        C  0.88776571  0.06163501  0.43087404     0.88980
O957        O  0.95896583  0.05003181  0.33476566    -0.73330
O958        O  0.54162452  0.44996639  0.33481371    -0.73360
O959        O  0.95001177  0.45835864  0.33482429    -0.73410
O960        O  0.55056193  0.04161265  0.33502529    -0.73460
O961        O  0.52524290  0.05100387  0.39611835    -0.73390
O962        O  0.97515196  0.44885915  0.39596496    -0.73370
O963        O  0.55108628  0.47508552  0.39597019    -0.73350
O964        O  0.94928572  0.02478991  0.39582789    -0.73410
Ni965      Ni  0.00058678  0.99999816  0.32915627     1.25410
Ni966      Ni  0.00000950  0.49994933  0.39779688     1.25360
C967        C  0.93878887  0.05203745  0.37034845     0.88850
C968        C  0.56167619  0.44790119  0.37046033     0.88780
C969        C  0.94796769  0.43827906  0.37046061     0.88810
C970        C  0.55249540  0.06162967  0.37069987     0.88980
O971        O  0.55106265  0.41270093  0.00792979    -0.73330
O972        O  0.94889869  0.41276756  0.45822834    -0.73360
O973        O  0.97513513  0.41270688  0.03417798    -0.73410
O974        O  0.52482359  0.41276460  0.43197799    -0.73460
O975        O  0.54995621  0.35160817  0.44139745    -0.73390
O976        O  0.94996286  0.35157837  0.02467252    -0.73370
O977        O  0.95833785  0.35163801  0.43302749    -0.73350
O978        O  0.54158067  0.35154666  0.03304814    -0.73410
Ni979      Ni  0.99998042  0.41453715  0.48308002     1.25410
Ni980      Ni  0.99995779  0.34589766  0.48303209     1.25360
C981        C  0.56164705  0.38718782  0.03511102     0.88850
C982        C  0.93829634  0.38729489  0.43101557     0.88780
C983        C  0.94793870  0.38721357  0.04475838     0.88810
C984        C  0.55200428  0.38727018  0.42136178     0.88980
C985        C  0.61405027  0.11388658  0.09749795    -0.12170
C986        C  0.63591557  0.13568815  0.11923039    -0.13730
C987        C  0.86409898  0.13573065  0.11899225    -0.12170
C988        C  0.88588069  0.11394742  0.09713057    -0.13730
C989        C  0.61405596  0.38568162  0.09718099    -0.12170
C990        C  0.63587410  0.36388827  0.11898554    -0.13730
C991        C  0.63614296  0.13584787  0.34742710    -0.12170
C992        C  0.61445283  0.11403803  0.36932583    -0.13730
C993        C  0.86405145  0.36394381  0.11894025    -0.12170
C994        C  0.88587814  0.38574018  0.09715420    -0.13730
C995        C  0.61408657  0.38583045  0.36897800    -0.12170
C996        C  0.63593147  0.36403665  0.34720101    -0.13730
C997        C  0.86432312  0.13588337  0.34721828    -0.12170
C998        C  0.88627635  0.11409982  0.36890878    -0.13730
C999        C  0.88590975  0.38589235  0.36894531    -0.12170
C1000       C  0.86410779  0.36410370  0.34712654    -0.13730
O1001       O  0.79168888  0.30003328  0.88137986    -0.73330
O1002       O  0.70848427  0.19999437  0.88147573    -0.73360
O1003       O  0.80011191  0.20837789  0.88145370    -0.73410
O1004       O  0.70008388  0.29162793  0.88141637    -0.73460
O1005       O  0.72520238  0.30103108  0.82024739    -0.73390
O1006       O  0.77494587  0.19883745  0.82033659    -0.73370
O1007       O  0.69901789  0.22508872  0.82030363    -0.73350
O1008       O  0.80115565  0.27480646  0.82026783    -0.73410
Ni1009     Ni  0.75009336  0.25001113  0.88712587     1.25410
Ni1010     Ni  0.75008295  0.24994090  0.81848648     1.25360
C1011       C  0.81173455  0.30204043  0.84572533     0.88850
C1012       C  0.68843413  0.19792215  0.84582894     0.88780
C1013       C  0.80214977  0.18827216  0.84582776     0.88810
C1014       C  0.69802437  0.31165174  0.84574988     0.88980
O1015       O  0.89823324  0.29990563  0.69140268    -0.73330
O1016       O  0.89830856  0.19997005  0.77475294    -0.73360
O1017       O  0.89827329  0.20825484  0.68309495    -0.73410
O1018       O  0.89826555  0.29161913  0.78304367    -0.73460
O1019       O  0.83710848  0.30100811  0.75793191    -0.73390
O1020       O  0.83715440  0.19878819  0.70826802    -0.73370
O1021       O  0.83715691  0.22507827  0.78420680    -0.73350
O1022       O  0.83710286  0.27473043  0.68199891    -0.73410
Ni1023     Ni  0.90395767  0.24993878  0.73307178     1.25410
Ni1024     Ni  0.83533049  0.24989943  0.73310160     1.25360
C1025       C  0.86258368  0.30191987  0.67136689     0.88850
C1026       C  0.86267639  0.19791998  0.79482214     0.88780
C1027       C  0.86264303  0.18817775  0.68107491     0.88810
C1028       C  0.86261562  0.31165633  0.78509013     0.88980
O1029       O  0.77485799  0.33708046  0.78417223    -0.73330
O1030       O  0.72514127  0.33699469  0.68199042    -0.73360
O1031       O  0.80107306  0.33703408  0.70821580    -0.73410
O1032       O  0.69892390  0.33704079  0.75795054    -0.73460
O1033       O  0.70836774  0.39820688  0.78306004    -0.73390
O1034       O  0.79159294  0.39815680  0.68301798    -0.73370
O1035       O  0.69997691  0.39813851  0.69141465    -0.73350
O1036       O  0.79998309  0.39822817  0.77466036    -0.73410
Ni1037     Ni  0.74999871  0.33523595  0.73308355     1.25410
Ni1038     Ni  0.74997834  0.40387724  0.73303448     1.25360
C1039       C  0.80203790  0.36259379  0.79474319     0.88850
C1040       C  0.69794546  0.36247531  0.67137934     0.88780
C1041       C  0.81165481  0.36251125  0.68099962     0.88810
C1042       C  0.68832769  0.36255169  0.78513018     0.88980
O1043       O  0.66289165  0.30094809  0.70828502    -0.73330
O1044       O  0.66293829  0.19878365  0.75805853    -0.73360
O1045       O  0.66291644  0.22498666  0.68210305    -0.73410
O1046       O  0.66291832  0.27474947  0.78425888    -0.73460
O1047       O  0.60178649  0.29988840  0.77479954    -0.73390
O1048       O  0.60179948  0.19981490  0.69160750    -0.73370
O1049       O  0.60182795  0.20825007  0.78324851    -0.73350
O1050       O  0.60175961  0.29144871  0.68316227    -0.73410
Ni1051     Ni  0.66471833  0.24986920  0.73317661     1.25410
Ni1052     Ni  0.59609949  0.24984774  0.73320617     1.25360
C1053       C  0.63739072  0.31151878  0.68109255     0.88850
C1054       C  0.63747233  0.18819945  0.78527976     0.88780
C1055       C  0.63743341  0.19777712  0.67153914     0.88810
C1056       C  0.63742901  0.30194650  0.79484548     0.88980
O1057       O  0.70843091  0.10155982  0.68326747    -0.73330
O1058       O  0.79173468  0.10163914  0.78323815    -0.73360
O1059       O  0.70011874  0.10163072  0.77491047    -0.73410
O1060       O  0.80006189  0.10157232  0.69157540    -0.73460
O1061       O  0.77489650  0.16269959  0.68207444    -0.73390
O1062       O  0.72525839  0.16279440  0.78429243    -0.73370
O1063       O  0.80117805  0.16275840  0.75802661    -0.73350
O1064       O  0.69899558  0.16273227  0.70837114    -0.73410
Ni1065     Ni  0.75008712  0.09590614  0.73325076     1.25410
Ni1066     Ni  0.75008480  0.16454666  0.73319010     1.25360
C1067       C  0.68837679  0.13720773  0.68121420     0.88850
C1068       C  0.81178823  0.13729061  0.78524165     0.88780
C1069       C  0.69808728  0.13729930  0.79493486     0.88810
C1070       C  0.80208216  0.13720252  0.67147889     0.88980
O1071       O  0.72518220  0.19872257  0.64603715    -0.73330
O1072       O  0.77482790  0.30093668  0.64594626    -0.73360
O1073       O  0.69891682  0.27466812  0.64599482    -0.73410
O1074       O  0.80109682  0.22498593  0.64598245    -0.73460
O1075       O  0.79162324  0.19978770  0.58485851    -0.73390
O1076       O  0.70834416  0.29978055  0.58482831    -0.73370
O1077       O  0.79996658  0.29143778  0.58480256    -0.73350
O1078       O  0.69999960  0.20813097  0.58490259    -0.73410
Ni1079     Ni  0.75000714  0.24982955  0.64779226     1.25410
Ni1080     Ni  0.74998201  0.24978005  0.57915341     1.25360
C1081       C  0.69798389  0.18809757  0.62056752     0.88850
C1082       C  0.80200376  0.31152658  0.62043542     0.88780
C1083       C  0.68830117  0.30183919  0.62048311     0.88810
C1084       C  0.81169024  0.19777686  0.62049933     0.88980
C1085       C  0.83763503  0.33761785  0.82067613    -0.01390
C1086       C  0.91237927  0.41233368  0.89544374    -0.01390
C1087       C  0.83773620  0.16232960  0.82080683    -0.01390
C1088       C  0.91280095  0.08761692  0.89534579    -0.01390
C1089       C  0.66242144  0.33756191  0.82074652    -0.01390
C1090       C  0.58759363  0.41228761  0.89544675    -0.01390
C1091       C  0.83757941  0.33748670  0.64541798    -0.01390
C1092       C  0.91236566  0.41221444  0.57070865    -0.01390
C1093       C  0.66251584  0.16230967  0.82087316    -0.01390
C1094       C  0.58801099  0.08755260  0.89578826    -0.01390
C1095       C  0.66236457  0.33744026  0.64547058    -0.01390
C1096       C  0.58758019  0.41216788  0.57071994    -0.01390
C1097       C  0.83764528  0.16220427  0.64550350    -0.01390
C1098       C  0.91238648  0.08749781  0.57064760    -0.01390
C1099       C  0.66242341  0.16217785  0.64562432    -0.01390
C1100       C  0.58759218  0.08743642  0.57101448    -0.01390
O1101       O  0.58723961  0.05093322  0.50821259    -0.73330
O1102       O  0.58708523  0.44879498  0.95824895    -0.73360
O1103       O  0.58708981  0.47497539  0.53421638    -0.73410
O1104       O  0.58747314  0.02472924  0.93224563    -0.73460
O1105       O  0.64855197  0.04991190  0.94190101    -0.73390
O1106       O  0.64821826  0.44982461  0.52474737    -0.73370
O1107       O  0.64822456  0.45824725  0.93311149    -0.73350
O1108       O  0.64830429  0.04146379  0.53351976    -0.73410
Ni1109     Ni  0.58529756  0.49987046  0.98314229     1.25410
Ni1110     Ni  0.65392233  0.49985478  0.98314033     1.25360
C1111       C  0.61265954  0.06151705  0.53547368     0.88850
C1112       C  0.61258020  0.43820077  0.93105728     0.88780
C1113       C  0.61257726  0.44777515  0.54480233     0.88810
C1114       C  0.61297056  0.05195155  0.92174494     0.88980
O1115       O  0.52491147  0.08698361  0.53433814    -0.73330
O1116       O  0.97547695  0.08709040  0.93201499    -0.73360
O1117       O  0.55132276  0.08701286  0.95846128    -0.73410
O1118       O  0.94903331  0.08706075  0.50792195    -0.73460
O1119       O  0.95847638  0.14816895  0.53316195    -0.73390
O1120       O  0.54197319  0.14819607  0.93334669    -0.73370
O1121       O  0.95032585  0.14823210  0.94147964    -0.73350
O1122       O  0.55010382  0.14813329  0.52499632    -0.73410
Ni1123     Ni  0.50018213  0.08523414  0.98318458     1.25410
Ni1124     Ni  0.50022079  0.15387671  0.98324822     1.25360
C1125       C  0.55208072  0.11246415  0.54502145     0.88850
C1126       C  0.94832513  0.11260379  0.92137638     0.88780
C1127       C  0.56200694  0.11253455  0.93132776     0.88810
C1128       C  0.93839905  0.11252928  0.53512794     0.88980
O1129       O  0.97513635  0.05093252  0.57025271    -0.73330
O1130       O  0.52482497  0.44872284  0.57025026    -0.73360
O1131       O  0.94891023  0.47498839  0.57026480    -0.73410
O1132       O  0.55105438  0.02466670  0.57042042    -0.73460
O1133       O  0.54146773  0.04979639  0.63155555    -0.73270
O1134       O  0.95834692  0.44979057  0.63139357    -0.73370
O1135       O  0.54996739  0.45813555  0.63140290    -0.73350
O1136       O  0.94985446  0.04145080  0.63134281    -0.73410
Ni1137     Ni  0.99999648  0.49983048  0.56848596     1.25410
Ni1138     Ni  0.99998501  0.49978456  0.63712560     1.25360
C1139       C  0.94790381  0.06153055  0.59570094     0.88850
C1140       C  0.55200346  0.43809730  0.59574131     0.88780
C1141       C  0.93830077  0.44778100  0.59574031     0.88810
C1142       C  0.56160265  0.05184467  0.59595269     0.88980
O1143       O  0.85186550  0.04990141  0.52447010    -0.73330
O1144       O  0.85175110  0.44994123  0.94146752    -0.73360
O1145       O  0.85174832  0.45824436  0.53311469    -0.73410
O1146       O  0.85210619  0.04160921  0.93283272    -0.73460
O1147       O  0.91321107  0.05098214  0.95809118    -0.73390
O1148       O  0.91287884  0.44879678  0.50795569    -0.73370
O1149       O  0.91288440  0.47509041  0.93202629    -0.73350
O1150       O  0.91296735  0.02473704  0.53405144    -0.73410
Ni1151     Ni  0.84606896  0.49991921  0.98314226     1.25410
Ni1152     Ni  0.91469172  0.49990753  0.98313837     1.25360
C1153       C  0.88745213  0.05192296  0.54461740     0.88850
C1154       C  0.88738991  0.44791073  0.92140634     0.88780
C1155       C  0.88738363  0.43818035  0.53513754     0.88810
C1156       C  0.88776571  0.06163501  0.93087405     0.88980
O1157       O  0.95896583  0.05003180  0.83476567    -0.73330
O1158       O  0.54162454  0.44996638  0.83481372    -0.73360
O1159       O  0.95001177  0.45835863  0.83482430    -0.73410
O1160       O  0.55056193  0.04161265  0.83502530    -0.73460
O1161       O  0.52524290  0.05100387  0.89611836    -0.73390
O1162       O  0.97515196  0.44885915  0.89596497    -0.73370
O1163       O  0.55108629  0.47508552  0.89597020    -0.73350
O1164       O  0.94928572  0.02478990  0.89582789    -0.73410
Ni1165     Ni  0.00058678  0.99999816  0.82915628     1.25410
Ni1166     Ni  0.00000950  0.49994933  0.89779689     1.25360
C1167       C  0.93878887  0.05203745  0.87034846     0.88850
C1168       C  0.56167620  0.44790118  0.87046034     0.88780
C1169       C  0.94796769  0.43827905  0.87046062     0.88810
C1170       C  0.55249540  0.06162967  0.87069988     0.88980
O1171       O  0.55106265  0.41270093  0.50792978    -0.73330
O1172       O  0.94889869  0.41276756  0.95822835    -0.73360
O1173       O  0.97513513  0.41270689  0.53417798    -0.73410
O1174       O  0.52482360  0.41276459  0.93197800    -0.73460
O1175       O  0.54995622  0.35160816  0.94139747    -0.73390
O1176       O  0.94996285  0.35157838  0.52467252    -0.73370
O1177       O  0.95833785  0.35163800  0.93302750    -0.73350
O1178       O  0.54158067  0.35154666  0.53304813    -0.73410
Ni1179     Ni  0.99998041  0.41453715  0.98308002     1.25410
Ni1180     Ni  0.99995779  0.34589765  0.98303209     1.25360
C1181       C  0.56164704  0.38718782  0.53511101     0.88850
C1182       C  0.93829634  0.38729489  0.93101558     0.88780
C1183       C  0.94793870  0.38721357  0.54475837     0.88810
C1184       C  0.55200429  0.38727017  0.92136180     0.88980
C1185       C  0.61405028  0.11388658  0.59749795    -0.12170
C1186       C  0.63591557  0.13568815  0.61923040    -0.13730
C1187       C  0.86409899  0.13573066  0.61899226    -0.12170
C1188       C  0.88588069  0.11394743  0.59713057    -0.13730
C1189       C  0.61405596  0.38568162  0.59718100    -0.12170
C1190       C  0.63587410  0.36388828  0.61898556    -0.13730
C1191       C  0.63614296  0.13584785  0.84742712    -0.12170
C1192       C  0.61445283  0.11403802  0.86932584    -0.13730
C1193       C  0.86405145  0.36394383  0.61894027    -0.12170
C1194       C  0.88587814  0.38574019  0.59715421    -0.13730
C1195       C  0.61408658  0.38583044  0.86897802    -0.12170
C1196       C  0.63593148  0.36403663  0.84720104    -0.13730
C1197       C  0.86432313  0.13588336  0.84721829    -0.12170
C1198       C  0.88627635  0.11409981  0.86890879    -0.13730
C1199       C  0.88590974  0.38589235  0.86894532    -0.12170
C1200       C  0.86410779  0.36410369  0.84712657    -0.13730
O1201       O  0.79171686  0.80002968  0.38138460    -0.73330
O1202       O  0.70845749  0.69999586  0.38147932    -0.73360
O1203       O  0.80008510  0.70836873  0.38144290    -0.73410
O1204       O  0.70011154  0.79163493  0.38140689    -0.73460
O1205       O  0.72523927  0.80102549  0.32023568    -0.73390
O1206       O  0.77490961  0.69884283  0.32032327    -0.73370
O1207       O  0.69900434  0.72507850  0.32030470    -0.73350
O1208       O  0.80116999  0.77481634  0.32026924    -0.73410
Ni1209     Ni  0.75009389  0.75001001  0.38712244     1.25410
Ni1210     Ni  0.75008329  0.74994080  0.31848216     1.25360
C1211       C  0.81177001  0.80204365  0.34573214     0.88850
C1212       C  0.68839974  0.69791783  0.34583467     0.88780
C1213       C  0.80210599  0.68827258  0.34581310     0.88810
C1214       C  0.69806868  0.81165017  0.34573710     0.88980
O1215       O  0.89825026  0.79989154  0.19139077    -0.73330
O1216       O  0.89828078  0.69995290  0.27476235    -0.73360
O1217       O  0.89824904  0.70823587  0.18311313    -0.73410
O1218       O  0.89828356  0.79160493  0.28303390    -0.73460
O1219       O  0.83712271  0.80101142  0.25793264    -0.73390
O1220       O  0.83712083  0.69880086  0.20828554    -0.73370
O1221       O  0.83713615  0.72507776  0.28420648    -0.73350
O1222       O  0.83711317  0.77473893  0.18199240    -0.73410
Ni1223     Ni  0.90395284  0.74992129  0.23307332     1.25410
Ni1224     Ni  0.83532408  0.74990885  0.23310390     1.25360
C1225       C  0.86260358  0.80191777  0.17134836     0.88850
C1226       C  0.86264450  0.69791043  0.29482748     0.88780
C1227       C  0.86261058  0.68817496  0.18110270     0.88810
C1228       C  0.86263954  0.81164886  0.28508457     0.88980
O1229       O  0.77490385  0.83711318  0.28419184    -0.73330
O1230       O  0.72517748  0.83699050  0.18200964    -0.73360
O1231       O  0.80112449  0.83706119  0.20821122    -0.73410
O1232       O  0.69897543  0.83704174  0.25795530    -0.73460
O1233       O  0.70842516  0.89820987  0.28306398    -0.73390
O1234       O  0.79162225  0.89816980  0.18299660    -0.73370
O1235       O  0.70001666  0.89813957  0.19142968    -0.73350
O1236       O  0.80004796  0.89824383  0.27464751    -0.73410
Ni1237     Ni  0.75004925  0.83524816  0.23309333     1.25410
Ni1238     Ni  0.75002618  0.90388666  0.23303172     1.25360
C1239       C  0.80209875  0.86261740  0.29474663     0.88850
C1240       C  0.69797960  0.86247151  0.17140504     0.88780
C1241       C  0.81168796  0.86252706  0.18097599     0.88810
C1242       C  0.68838380  0.86255461  0.28513330     0.88980
O1243       O  0.66292527  0.80093742  0.20830410    -0.73330
O1244       O  0.66292482  0.69878135  0.25805833    -0.73360
O1245       O  0.66290606  0.72498041  0.18209620    -0.73410
O1246       O  0.66293975  0.77475037  0.28425936    -0.73460
O1247       O  0.60181470  0.79990571  0.27481070    -0.73390
O1248       O  0.60178254  0.69983088  0.19159514    -0.73370
O1249       O  0.60181069  0.70826431  0.28323828    -0.73350
O1250       O  0.60178400  0.79146979  0.18318178    -0.73410
Ni1251     Ni  0.66472509  0.74986120  0.23317914     1.25410
Ni1252     Ni  0.59610467  0.74986630  0.23320828     1.25360
C1253       C  0.63742326  0.81152386  0.18112202     0.88850
C1254       C  0.63744930  0.68820717  0.28527307     0.88780
C1255       C  0.63741345  0.69778153  0.17151993     0.88810
C1256       C  0.63746142  0.80195597  0.29485246     0.88980
O1257       O  0.70840181  0.60154893  0.18324286    -0.73330
O1258       O  0.79167785  0.60163640  0.28323833    -0.73360
O1259       O  0.70005456  0.60161542  0.27489445    -0.73410
O1260       O  0.80002239  0.60157327  0.19158688    -0.73460
O1261       O  0.77486044  0.66270598  0.18209137    -0.73390
O1262       O  0.72521317  0.66276201  0.28430991    -0.73370
O1263       O  0.80112676  0.66275841  0.25802902    -0.73350
O1264       O  0.69894431  0.66270673  0.20836478    -0.73410
Ni1265     Ni  0.75003972  0.59589790  0.23324443     1.25410
Ni1266     Ni  0.75003457  0.66453572  0.23319770     1.25360
C1267       C  0.68834371  0.63719400  0.18118831     0.88850
C1268       C  0.81173251  0.63728799  0.28524175     0.88780
C1269       C  0.69802727  0.63727568  0.29493587     0.88810
C1270       C  0.80204821  0.63720878  0.17150186     0.88980
O1271       O  0.72516523  0.69872701  0.14604189    -0.73330
O1272       O  0.77484477  0.80093509  0.14595205    -0.73360
O1273       O  0.69892315  0.77466788  0.14600440    -0.73410
O1274       O  0.80109079  0.72498910  0.14599085    -0.73460
O1275       O  0.79161720  0.69978317  0.08487131    -0.73390
O1276       O  0.70834987  0.79978892  0.08484248    -0.73370
O1277       O  0.79996557  0.79143610  0.08479886    -0.73350
O1278       O  0.70000025  0.70813660  0.08489810    -0.73410
Ni1279     Ni  0.75000720  0.74983093  0.14779883     1.25410
Ni1280     Ni  0.74998183  0.74978207  0.07915847     1.25360
C1281       C  0.69797503  0.68810264  0.12056133     0.88850
C1282       C  0.80201239  0.81152480  0.12043039     0.88780
C1283       C  0.68831103  0.80184496  0.12050030     0.88810
C1284       C  0.81168046  0.69777437  0.12051487     0.88980
C1285       C  0.83769554  0.83762473  0.32067567    -0.01390
C1286       C  0.91275606  0.91231853  0.39522311    -0.01390
C1287       C  0.83767400  0.66232779  0.32080434    -0.01390
C1288       C  0.91241889  0.58760224  0.39556749    -0.01390
C1289       C  0.66248394  0.83756317  0.32074658    -0.01390
C1290       C  0.58797369  0.91230117  0.39566862    -0.01390
C1291       C  0.83760034  0.83749161  0.14538642    -0.01390
C1292       C  0.91233657  0.91220058  0.07053595    -0.01390
C1293       C  0.66245640  0.66230232  0.32087085    -0.01390
C1294       C  0.58763546  0.58756831  0.39556785    -0.01390
C1295       C  0.66239315  0.83744164  0.14551029    -0.01390
C1296       C  0.58755852  0.91218645  0.07090730    -0.01390
C1297       C  0.83761685  0.66220574  0.14554105    -0.01390
C1298       C  0.91240684  0.58747923  0.07083380    -0.01390
C1299       C  0.66240234  0.66217568  0.14559127    -0.01390
C1300       C  0.58762229  0.58745069  0.07084097    -0.01390
O1301       O  0.58711007  0.55094635  0.00803570    -0.73330
O1302       O  0.58738865  0.94875773  0.45847993    -0.73360
O1303       O  0.58715598  0.97498598  0.03441303    -0.73410
O1304       O  0.58710684  0.52476317  0.43206822    -0.73460
O1305       O  0.64824820  0.54988560  0.44153342    -0.73390
O1306       O  0.64831057  0.94983461  0.02509646    -0.73370
O1307       O  0.64855521  0.95826062  0.43344794    -0.73350
O1308       O  0.64824097  0.54146615  0.03317065    -0.73410
Ni1309     Ni  0.58551151  0.99985400  0.48332975     1.25410
Ni1310     Ni  0.65412759  0.99986431  0.48350657     1.25360
C1311       C  0.61260597  0.56152864  0.03522835     0.88850
C1312       C  0.61292647  0.93818906  0.43132452     0.88780
C1313       C  0.61261579  0.94778731  0.04505794     0.88810
C1314       C  0.61260931  0.55195035  0.42148177     0.88980
O1315       O  0.52485874  0.58699948  0.03430422    -0.73330
O1316       O  0.97518259  0.58707922  0.43210421    -0.73360
O1317       O  0.55110518  0.58704832  0.45835363    -0.73410
O1318       O  0.94893795  0.58702998  0.00805183    -0.73460
O1319       O  0.95840371  0.64815424  0.03325453    -0.73390
O1320       O  0.54166222  0.64820932  0.43323774    -0.73370
O1321       O  0.95004240  0.64822024  0.44160821    -0.73350
O1322       O  0.55002291  0.64814481  0.02488658    -0.73410
Ni1323     Ni  0.50002081  0.58523745  0.48320218     1.25410
Ni1324     Ni  0.50003409  0.65387718  0.48325102     1.25360
C1325       C  0.55204943  0.61248239  0.04492278     0.88850
C1326       C  0.94800143  0.61258644  0.42152158     0.88780
C1327       C  0.56170854  0.61255742  0.43117538     0.88810
C1328       C  0.93834351  0.61250669  0.03526421     0.88980
O1329       O  0.97516478  0.55093404  0.07032467    -0.73330
O1330       O  0.52479552  0.94872072  0.07032411    -0.73360
O1331       O  0.94887966  0.97498638  0.07015777    -0.73410
O1332       O  0.55108498  0.52466946  0.07031132    -0.73460
O1333       O  0.54162315  0.54979016  0.13146879    -0.73270
O1334       O  0.95819209  0.94979655  0.13130796    -0.73370
O1335       O  0.54981830  0.95814848  0.13152087    -0.73350
O1336       O  0.95000332  0.54143792  0.13145961    -0.73410
Ni1337     Ni  0.99997135  0.99982778  0.06848694     1.25410
Ni1338     Ni  0.99981835  0.99979403  0.13712631     1.25360
C1339       C  0.94797746  0.56152244  0.09582536     0.88850
C1340       C  0.55192901  0.93810513  0.09586719     0.88780
C1341       C  0.93822143  0.94777809  0.09561194     0.88810
C1342       C  0.56168264  0.55184768  0.09582303     0.88980
O1343       O  0.85177026  0.54989165  0.02481820    -0.73330
O1344       O  0.85205786  0.94996980  0.44109933    -0.73360
O1345       O  0.85181408  0.95824241  0.03276491    -0.73410
O1346       O  0.85177229  0.54159398  0.43316743    -0.73460
O1347       O  0.91290268  0.55102090  0.45832323    -0.73390
O1348       O  0.91301116  0.94878415  0.00777999    -0.73370
O1349       O  0.91325493  0.97505554  0.43185021    -0.73350
O1350       O  0.91289751  0.52472540  0.03424881    -0.73410
Ni1351     Ni  0.84627767  0.99992980  0.48277630     1.25410
Ni1352     Ni  0.91490944  0.99989081  0.48295118     1.25360
C1353       C  0.88741083  0.55191093  0.04487253     0.88850
C1354       C  0.88775409  0.94791299  0.42114331     0.88780
C1355       C  0.88743940  0.93816937  0.03489253     0.88810
C1356       C  0.88741565  0.56164653  0.43114073     0.88980
O1357       O  0.95839563  0.55000253  0.33488878    -0.73330
O1358       O  0.54219271  0.94999346  0.33493589    -0.73360
O1359       O  0.95055765  0.95835538  0.33467683    -0.73410
O1360       O  0.55001492  0.54161739  0.33487890    -0.73460
O1361       O  0.52486117  0.55104729  0.39602653    -0.73390
O1362       O  0.97553597  0.94881420  0.39586922    -0.73370
O1363       O  0.55143734  0.97506431  0.39615697    -0.73350
O1364       O  0.94893532  0.52481239  0.39601894    -0.73410
Ni1365     Ni  0.00001203  0.49999061  0.32915714     1.25410
Ni1366     Ni  0.00036694  0.99992100  0.39779496     1.25360
C1367       C  0.93834335  0.55202280  0.37054078     0.88850
C1368       C  0.56212044  0.94791449  0.37065093     0.88780
C1369       C  0.94841177  0.93825067  0.37029776     0.88810
C1370       C  0.55205184  0.56165799  0.37053907     0.88980
O1371       O  0.55115835  0.91273020  0.00805992    -0.73330
O1372       O  0.94911776  0.91273294  0.45812059    -0.73360
O1373       O  0.97518844  0.91269085  0.03414484    -0.73410
O1374       O  0.52511738  0.91277599  0.43206773    -0.73460
O1375       O  0.55023833  0.85161973  0.44152684    -0.73390
O1376       O  0.95004373  0.85156712  0.02456363    -0.73370
O1377       O  0.95864881  0.85162501  0.43291969    -0.73350
O1378       O  0.54165211  0.85156100  0.03314219    -0.73410
Ni1379     Ni  0.00014221  0.91453373  0.48309815     1.25410
Ni1380     Ni  0.00014386  0.84589713  0.48303594     1.25360
C1381       C  0.56170173  0.88720970  0.03524860     0.88850
C1382       C  0.93859615  0.88727301  0.43086326     0.88780
C1383       C  0.94797064  0.88719538  0.04466075     0.88810
C1384       C  0.55232645  0.88728697  0.42150728     0.88980
C1385       C  0.61410620  0.61389918  0.09732829    -0.12170
C1386       C  0.63592303  0.63569235  0.11913370    -0.13730
C1387       C  0.86409938  0.63572925  0.11909301    -0.12170
C1388       C  0.88592777  0.61393363  0.09730787    -0.13730
C1389       C  0.61400852  0.88569663  0.09735965    -0.12170
C1390       C  0.63587383  0.86389228  0.11908831    -0.13730
C1391       C  0.63597648  0.63584776  0.34735480    -0.12170
C1392       C  0.61413540  0.61404830  0.36912963    -0.13730
C1393       C  0.86404385  0.86394213  0.11884505    -0.12170
C1394       C  0.88582255  0.88572884  0.09698548    -0.13730
C1395       C  0.61440469  0.88584110  0.36917289    -0.12170
C1396       C  0.63609751  0.86403753  0.34727211    -0.13730
C1397       C  0.86415703  0.63588127  0.34728656    -0.12170
C1398       C  0.88595793  0.61408755  0.36910163    -0.13730
C1399       C  0.88622732  0.88588178  0.36875054    -0.12170
C1400       C  0.86427511  0.86410308  0.34705636    -0.13730
O1401       O  0.79171686  0.80002968  0.88138463    -0.73330
O1402       O  0.70845749  0.69999586  0.88147936    -0.73360
O1403       O  0.80008511  0.70836873  0.88144292    -0.73410
O1404       O  0.70011154  0.79163493  0.88140692    -0.73460
O1405       O  0.72523927  0.80102549  0.82023571    -0.73390
O1406       O  0.77490961  0.69884283  0.82032330    -0.73370
O1407       O  0.69900434  0.72507850  0.82030473    -0.73350
O1408       O  0.80116999  0.77481634  0.82026927    -0.73410
Ni1409     Ni  0.75009389  0.75001001  0.88712247     1.25410
Ni1410     Ni  0.75008329  0.74994080  0.81848219     1.25360
C1411       C  0.81177001  0.80204365  0.84573217     0.88850
C1412       C  0.68839974  0.69791783  0.84583470     0.88780
C1413       C  0.80210600  0.68827258  0.84581313     0.88810
C1414       C  0.69806869  0.81165017  0.84573713     0.88980
O1415       O  0.89825026  0.79989155  0.69139079    -0.73330
O1416       O  0.89828078  0.69995291  0.77476237    -0.73360
O1417       O  0.89824904  0.70823588  0.68311315    -0.73410
O1418       O  0.89828356  0.79160493  0.78303393    -0.73460
O1419       O  0.83712271  0.80101142  0.75793267    -0.73390
O1420       O  0.83712083  0.69880086  0.70828556    -0.73370
O1421       O  0.83713615  0.72507776  0.78420651    -0.73350
O1422       O  0.83711317  0.77473894  0.68199242    -0.73410
Ni1423     Ni  0.90395284  0.74992130  0.73307334     1.25410
Ni1424     Ni  0.83532408  0.74990885  0.73310392     1.25360
C1425       C  0.86260358  0.80191778  0.67134838     0.88850
C1426       C  0.86264451  0.69791043  0.79482750     0.88780
C1427       C  0.86261058  0.68817496  0.68110273     0.88810
C1428       C  0.86263953  0.81164886  0.78508459     0.88980
O1429       O  0.77490385  0.83711318  0.78419187    -0.73330
O1430       O  0.72517747  0.83699051  0.68200967    -0.73360
O1431       O  0.80112449  0.83706120  0.70821124    -0.73410
O1432       O  0.69897543  0.83704175  0.75795533    -0.73460
O1433       O  0.70842516  0.89820987  0.78306401    -0.73390
O1434       O  0.79162224  0.89816981  0.68299663    -0.73370
O1435       O  0.70001665  0.89813957  0.69142972    -0.73350
O1436       O  0.80004796  0.89824384  0.77464754    -0.73410
Ni1437     Ni  0.75004925  0.83524816  0.73309336     1.25410
Ni1438     Ni  0.75002617  0.90388667  0.73303176     1.25360
C1439       C  0.80209875  0.86261740  0.79474666     0.88850
C1440       C  0.69797960  0.86247152  0.67140507     0.88780
C1441       C  0.81168796  0.86252707  0.68097602     0.88810
C1442       C  0.68838380  0.86255462  0.78513334     0.88980
O1443       O  0.66292526  0.80093742  0.70830413    -0.73330
O1444       O  0.66292482  0.69878136  0.75805836    -0.73360
O1445       O  0.66290606  0.72498041  0.68209623    -0.73410
O1446       O  0.66293975  0.77475037  0.78425939    -0.73460
O1447       O  0.60181470  0.79990571  0.77481073    -0.73390
O1448       O  0.60178254  0.69983088  0.69159518    -0.73370
O1449       O  0.60181070  0.70826431  0.78323831    -0.73350
O1450       O  0.60178399  0.79146980  0.68318181    -0.73410
Ni1451     Ni  0.66472509  0.74986120  0.73317917     1.25410
Ni1452     Ni  0.59610467  0.74986631  0.73320831     1.25360
C1453       C  0.63742326  0.81152386  0.68112205     0.88850
C1454       C  0.63744931  0.68820717  0.78527310     0.88780
C1455       C  0.63741345  0.69778153  0.67151996     0.88810
C1456       C  0.63746142  0.80195597  0.79485249     0.88980
O1457       O  0.70840181  0.60154893  0.68324288    -0.73330
O1458       O  0.79167786  0.60163640  0.78323835    -0.73360
O1459       O  0.70005457  0.60161542  0.77489447    -0.73410
O1460       O  0.80002239  0.60157327  0.69158690    -0.73460
O1461       O  0.77486045  0.66270598  0.68209139    -0.73390
O1462       O  0.72521317  0.66276202  0.78430994    -0.73370
O1463       O  0.80112676  0.66275842  0.75802905    -0.73350
O1464       O  0.69894431  0.66270673  0.70836480    -0.73410
Ni1465     Ni  0.75003972  0.59589791  0.73324446     1.25410
Ni1466     Ni  0.75003457  0.66453572  0.73319773     1.25360
C1467       C  0.68834371  0.63719400  0.68118834     0.88850
C1468       C  0.81173251  0.63728799  0.78524177     0.88780
C1469       C  0.69802728  0.63727569  0.79493590     0.88810
C1470       C  0.80204822  0.63720878  0.67150188     0.88980
O1471       O  0.72516522  0.69872702  0.64604192    -0.73330
O1472       O  0.77484477  0.80093510  0.64595208    -0.73360
O1473       O  0.69892315  0.77466788  0.64600444    -0.73410
O1474       O  0.80109079  0.72498911  0.64599088    -0.73460
O1475       O  0.79161720  0.69978318  0.58487134    -0.73390
O1476       O  0.70834986  0.79978893  0.58484252    -0.73370
O1477       O  0.79996556  0.79143611  0.58479889    -0.73350
O1478       O  0.70000025  0.70813661  0.58489813    -0.73410
Ni1479     Ni  0.75000720  0.74983094  0.64779886     1.25410
Ni1480     Ni  0.74998183  0.74978208  0.57915850     1.25360
C1481       C  0.69797503  0.68810265  0.62056136     0.88850
C1482       C  0.80201239  0.81152481  0.62043042     0.88780
C1483       C  0.68831103  0.80184496  0.62050034     0.88810
C1484       C  0.81168046  0.69777437  0.62051490     0.88980
C1485       C  0.83769553  0.83762473  0.82067570    -0.01390
C1486       C  0.91275607  0.91231852  0.89522312    -0.01390
C1487       C  0.83767401  0.66232780  0.82080437    -0.01390
C1488       C  0.91241888  0.58760223  0.89556750    -0.01390
C1489       C  0.66248394  0.83756316  0.82074661    -0.01390
C1490       C  0.58797370  0.91230117  0.89566864    -0.01390
C1491       C  0.83760033  0.83749162  0.64538645    -0.01390
C1492       C  0.91233656  0.91220058  0.57053594    -0.01390
C1493       C  0.66245641  0.66230232  0.82087088    -0.01390
C1494       C  0.58763547  0.58756830  0.89556786    -0.01390
C1495       C  0.66239314  0.83744165  0.64551032    -0.01390
C1496       C  0.58755853  0.91218644  0.57090729    -0.01390
C1497       C  0.83761686  0.66220575  0.64554107    -0.01390
C1498       C  0.91240684  0.58747924  0.57083380    -0.01390
C1499       C  0.66240233  0.66217568  0.64559129    -0.01390
C1500       C  0.58762229  0.58745070  0.57084097    -0.01390
O1501       O  0.58711007  0.55094636  0.50803569    -0.73330
O1502       O  0.58738865  0.94875774  0.95847995    -0.73360
O1503       O  0.58715599  0.97498598  0.53441302    -0.73410
O1504       O  0.58710686  0.52476316  0.93206823    -0.73460
O1505       O  0.64824822  0.54988559  0.94153343    -0.73390
O1506       O  0.64831057  0.94983460  0.52509645    -0.73370
O1507       O  0.64855521  0.95826063  0.93344796    -0.73350
O1508       O  0.64824097  0.54146616  0.53317064    -0.73410
Ni1509     Ni  0.58551151  0.99985401  0.98332977     1.25410
Ni1510     Ni  0.65412758  0.99986432  0.98350658     1.25360
C1511       C  0.61260597  0.56152865  0.53522834     0.88850
C1512       C  0.61292647  0.93818907  0.93132454     0.88780
C1513       C  0.61261580  0.94778730  0.54505793     0.88810
C1514       C  0.61260932  0.55195034  0.92148178     0.88980
O1515       O  0.52485873  0.58699948  0.53430422    -0.73330
O1516       O  0.97518258  0.58707921  0.93210422    -0.73360
O1517       O  0.55110519  0.58704831  0.95835364    -0.73410
O1518       O  0.94893795  0.58702998  0.50805183    -0.73460
O1519       O  0.95840372  0.64815425  0.53325453    -0.73390
O1520       O  0.54166223  0.64820932  0.93323775    -0.73370
O1521       O  0.95004239  0.64822023  0.94160822    -0.73350
O1522       O  0.55002290  0.64814481  0.52488657    -0.73410
Ni1523     Ni  0.50002082  0.58523745  0.98320218     1.25410
Ni1524     Ni  0.50003410  0.65387718  0.98325103     1.25360
C1525       C  0.55204942  0.61248240  0.54492278     0.88850
C1526       C  0.94800142  0.61258643  0.92152158     0.88780
C1527       C  0.56170856  0.61255741  0.93117539     0.88810
C1528       C  0.93834352  0.61250670  0.53526421     0.88980
O1529       O  0.97516478  0.55093404  0.57032466    -0.73330
O1530       O  0.52479553  0.94872072  0.57032409    -0.73360
O1531       O  0.94887966  0.97498638  0.57015775    -0.73410
O1532       O  0.55108498  0.52466947  0.57031132    -0.73460
O1533       O  0.54162315  0.54979016  0.63146878    -0.73270
O1534       O  0.95819208  0.94979656  0.63130795    -0.73370
O1535       O  0.54981831  0.95814847  0.63152086    -0.73350
O1536       O  0.95000333  0.54143792  0.63145960    -0.73410
Ni1537     Ni  0.99997135  0.99982778  0.56848693     1.25410
Ni1538     Ni  0.99981834  0.99979403  0.63712630     1.25360
C1539       C  0.94797747  0.56152244  0.59582535     0.88850
C1540       C  0.55192902  0.93810512  0.59586717     0.88780
C1541       C  0.93822142  0.94777809  0.59561193     0.88810
C1542       C  0.56168264  0.55184768  0.59582302     0.88980
O1543       O  0.85177026  0.54989166  0.52481820    -0.73330
O1544       O  0.85205787  0.94996979  0.94109934    -0.73360
O1545       O  0.85181407  0.95824241  0.53276490    -0.73410
O1546       O  0.85177229  0.54159397  0.93316744    -0.73460
O1547       O  0.91290267  0.55102089  0.95832324    -0.73390
O1548       O  0.91301115  0.94878415  0.50777998    -0.73370
O1549       O  0.91325493  0.97505553  0.93185022    -0.73350
O1550       O  0.91289751  0.52472540  0.53424881    -0.73410
Ni1551     Ni  0.84627767  0.99992980  0.98277631     1.25410
Ni1552     Ni  0.91490944  0.99989081  0.98295118     1.25360
C1553       C  0.88741083  0.55191093  0.54487253     0.88850
C1554       C  0.88775410  0.94791299  0.92114332     0.88780
C1555       C  0.88743939  0.93816937  0.53489253     0.88810
C1556       C  0.88741564  0.56164652  0.93114074     0.88980
O1557       O  0.95839562  0.55000252  0.83488879    -0.73330
O1558       O  0.54219272  0.94999346  0.83493590    -0.73360
O1559       O  0.95055766  0.95835537  0.83467684    -0.73410
O1560       O  0.55001494  0.54161738  0.83487891    -0.73460
O1561       O  0.52486119  0.55104728  0.89602654    -0.73390
O1562       O  0.97553597  0.94881420  0.89586923    -0.73370
O1563       O  0.55143734  0.97506430  0.89615698    -0.73350
O1564       O  0.94893532  0.52481239  0.89601894    -0.73410
Ni1565     Ni  0.00001202  0.49999060  0.82915714     1.25410
Ni1566     Ni  0.00036694  0.99992100  0.89779497     1.25360
C1567       C  0.93834334  0.55202279  0.87054079     0.88850
C1568       C  0.56212044  0.94791449  0.87065094     0.88780
C1569       C  0.94841177  0.93825067  0.87029777     0.88810
C1570       C  0.55205185  0.56165798  0.87053908     0.88980
O1571       O  0.55115835  0.91273020  0.50805991    -0.73330
O1572       O  0.94911777  0.91273294  0.95812060    -0.73360
O1573       O  0.97518843  0.91269085  0.53414483    -0.73410
O1574       O  0.52511738  0.91277599  0.93206775    -0.73460
O1575       O  0.55023833  0.85161973  0.94152686    -0.73390
O1576       O  0.95004372  0.85156712  0.52456362    -0.73370
O1577       O  0.95864882  0.85162501  0.93291970    -0.73350
O1578       O  0.54165211  0.85156100  0.53314217    -0.73410
Ni1579     Ni  0.00014222  0.91453373  0.98309815     1.25410
Ni1580     Ni  0.00014387  0.84589713  0.98303595     1.25360
C1581       C  0.56170173  0.88720970  0.53524858     0.88850
C1582       C  0.93859616  0.88727301  0.93086327     0.88780
C1583       C  0.94797063  0.88719538  0.54466074     0.88810
C1584       C  0.55232645  0.88728698  0.92150730     0.88980
C1585       C  0.61410620  0.61389918  0.59732829    -0.12170
C1586       C  0.63592303  0.63569235  0.61913372    -0.13730
C1587       C  0.86409938  0.63572925  0.61909303    -0.12170
C1588       C  0.88592777  0.61393363  0.59730787    -0.13730
C1589       C  0.61400852  0.88569662  0.59735965    -0.12170
C1590       C  0.63587383  0.86389228  0.61908833    -0.13730
C1591       C  0.63597649  0.63584775  0.84735482    -0.12170
C1592       C  0.61413541  0.61404829  0.86912964    -0.13730
C1593       C  0.86404384  0.86394214  0.61884506    -0.12170
C1594       C  0.88582254  0.88572885  0.59698548    -0.13730
C1595       C  0.61440470  0.88584111  0.86917291    -0.12170
C1596       C  0.63609751  0.86403753  0.84727214    -0.13730
C1597       C  0.86415703  0.63588127  0.84728658    -0.12170
C1598       C  0.88595793  0.61408754  0.86910164    -0.13730
C1599       C  0.88622733  0.88588178  0.86875056    -0.12170
C1600       C  0.86427511  0.86410308  0.84705639    -0.13730
loop_ 
_geom_bond_atom_site_label_1 
_geom_bond_atom_site_label_2 
_geom_bond_distance 
_geom_bond_site_symmetry_2 
_ccdc_geom_bond_type 
O1           Ni9   2.085       .  S
O1           C11   1.307       .  A
O2           Ni9   2.085       .  S
O2           C12   1.307       .  A
O3           Ni9   2.085       .  S
O3           C13   1.307       .  A
O4           Ni9   2.085       .  S
O4           C14   1.307       .  A
O5          Ni10   1.815       .  S
O5           C14   1.237       .  A
O6          Ni10   1.815       .  S
O6           C13   1.237       .  A
O7          Ni10   1.814       .  S
O7           C12   1.237       .  A
O8          Ni10   1.814       .  S
O8           C11   1.237       .  A
Ni9         Ni10   2.191       .  S
C11          C85   1.616       .  S
C12          C93   1.616       .  S
C13          C87   1.617       .  S
C14          C89   1.617       .  S
O15         Ni23   2.085       .  S
O15          C25   1.307       .  A
O16         Ni23   2.085       .  S
O16          C26   1.307       .  A
O17         Ni23   2.085       .  S
O17          C27   1.307       .  A
O18         Ni23   2.085       .  S
O18          C28   1.307       .  A
O19         Ni24   1.814       .  S
O19          C28   1.237       .  A
O20         Ni24   1.815       .  S
O20          C27   1.237       .  A
O21         Ni24   1.814       .  S
O21          C26   1.237       .  A
O22         Ni24   1.814       .  S
O22          C25   1.237       .  A
Ni23        Ni24   2.191       .  S
C25          C91   1.616       .  S
C26          C87   1.616       .  S
C27          C97   1.617       .  S
C28          C85   1.616       .  S
O29         Ni37   1.815       .  S
O29          C39   1.237       .  A
O30         Ni37   1.815       .  S
O30          C40   1.237       .  A
O31         Ni37   1.814       .  S
O31          C41   1.237       .  A
O32         Ni37   1.814       .  S
O32          C42   1.237       .  A
O33         Ni38   2.085       .  S
O33          C42   1.307       .  A
O34         Ni38   2.085       .  S
O34          C41   1.307       .  A
O35         Ni38   2.085       .  S
O35          C40   1.307       .  A
O36         Ni38   2.085       .  S
O36          C39   1.307       .  A
Ni37        Ni38   2.191       .  S
C39          C85   1.616       .  S
C40          C95   1.616       .  S
C41          C91   1.616       .  S
C42          C89   1.616       .  S
O43         Ni51   1.815       .  S
O43          C53   1.237       .  A
O44         Ni51   1.815       .  S
O44          C54   1.237       .  A
O45         Ni51   1.814       .  S
O45          C55   1.237       .  A
O46         Ni51   1.814       .  S
O46          C56   1.237       .  A
O47         Ni52   2.085       .  S
O47          C56   1.307       .  A
O48         Ni52   2.085       .  S
O48          C55   1.307       .  A
O49         Ni52   2.085       .  S
O49          C54   1.307       .  A
O50         Ni52   2.085       .  S
O50          C53   1.307       .  A
Ni51        Ni52   2.191       .  S
C53          C95   1.616       .  S
C54          C93   1.616       .  S
C55          C99   1.616       .  S
C56          C89   1.616       .  S
O57         Ni65   2.085       .  S
O57          C67   1.307       .  A
O58         Ni65   2.085       .  S
O58          C68   1.307       .  A
O59         Ni65   2.085       .  S
O59          C69   1.307       .  A
O60         Ni65   2.085       .  S
O60          C70   1.307       .  A
O61         Ni66   1.815       .  S
O61          C70   1.237       .  A
O62         Ni66   1.814       .  S
O62          C69   1.237       .  A
O63         Ni66   1.815       .  S
O63          C68   1.237       .  A
O64         Ni66   1.814       .  S
O64          C67   1.237       .  A
Ni65        Ni66   2.191       .  S
C67          C99   1.616       .  S
C68          C87   1.617       .  S
C69          C93   1.616       .  S
C70          C97   1.617       .  S
O71         Ni79   1.814       .  S
O71          C81   1.237       .  A
O72         Ni79   1.814       .  S
O72          C82   1.237       .  A
O73         Ni79   1.815       .  S
O73          C83   1.237       .  A
O74         Ni79   1.815       .  S
O74          C84   1.237       .  A
O75         Ni80   2.085       .  S
O75          C84   1.307       .  A
O76         Ni80   2.085       .  S
O76          C83   1.307       .  A
O77         Ni80   2.085       .  S
O77          C82   1.307       .  A
O78         Ni80   2.085       .  S
O78          C81   1.307       .  A
Ni79        Ni80   2.191       .  S
C81          C99   1.616       .  S
C82          C91   1.616       .  S
C83          C95   1.616       .  S
C84          C97   1.616       .  S
C85         C200   1.463       .  S
C86         C154   1.616       .  S
C86         C169   1.616       .  S
C86         C182   1.616       .  S
C86         C199   1.463       .  S
C87         C197   1.464       .  S
C88         C126   1.616       .  S
C88         C156   1.616       .  S
C88         C167   1.617       .  S
C88         C198   1.464       .  S
C89         C196   1.464       .  S
C90         C112   1.616       .  S
C90         C168   1.616       .  S
C90         C184   1.616       .  S
C90         C195   1.464       .  S
C91         C193   1.463       .  S
C92         C141   1.616       .  S
C92         C155   1.616       .  S
C92         C183   1.616       .  S
C92         C194   1.463       .  S
C93         C191   1.463       .  S
C94         C114   1.616       .  S
C94         C127   1.616       .  S
C94         C170   1.616       .  S
C94         C192   1.463       .  S
C95         C190   1.464       .  S
C96         C113   1.616       .  S
C96         C140   1.616       .  S
C96         C181   1.617       .  S
C96         C189   1.464       .  S
C97         C187   1.464       .  S
C98         C128   1.617       .  S
C98         C139   1.616       .  S
C98         C153   1.617       .  S
C98         C188   1.464       .  S
C99         C186   1.463       .  S
C100        C111   1.616       .  S
C100        C125   1.616       .  S
C100        C142   1.616       .  S
C100        C185   1.463       .  S
O101       Ni709   1.814   1_544  S
O101        C111   1.237       .  A
O102       Ni109   1.814       .  S
O102        C112   1.237       .  A
O103       Ni309   1.814   1_554  S
O103        C113   1.237       .  A
O104       Ni509   1.815   1_545  S
O104        C114   1.237       .  A
O105       Ni510   2.085   1_545  S
O105        C114   1.307       .  A
O106       Ni310   2.085   1_554  S
O106        C113   1.307       .  A
O107       Ni110   2.085       .  S
O107        C112   1.307       .  A
O108       Ni710   2.085   1_544  S
O108        C111   1.307       .  A
Ni109       O701   1.814       .  S
Ni109       O303   1.814       .  S
Ni109       O504   1.814       .  S
Ni109      Ni110   2.191       .  S
Ni110       O505   2.085       .  S
Ni110       O306   2.085       .  S
Ni110       O708   2.085       .  S
O115       Ni323   1.815   1_554  S
O115        C125   1.237       .  A
O116       Ni923   1.815       .  S
O116        C126   1.237       .  A
O117       Ni123   1.814       .  S
O117        C127   1.237       .  A
O118      Ni1123   1.815   1_554  S
O118        C128   1.237       .  A
O119      Ni1124   2.085   1_554  S
O119        C128   1.307       .  A
O120       Ni124   2.085       .  S
O120        C127   1.307       .  A
O121       Ni924   2.085       .  S
O121        C126   1.307       .  A
O122       Ni324   2.085   1_554  S
O122        C125   1.307       .  A
Ni123       O315   1.815       .  S
Ni123       O916   1.815   1_455  S
Ni123      O1118   1.815   1_455  S
Ni123      Ni124   2.191       .  S
Ni124      O1119   2.085   1_455  S
Ni124       O921   2.085   1_455  S
Ni124       O322   2.085       .  S
O129       Ni537   1.815   1_545  S
O129        C139   1.237       .  A
O130       Ni937   1.815   1_455  S
O130        C140   1.237       .  A
O131       Ni137   1.814       .  S
O131        C141   1.237       .  A
O132      Ni1337   1.814   1_445  S
O132        C142   1.237       .  A
O133      Ni1338   2.085   1_445  S
O133        C142   1.307       .  A
O134       Ni138   2.085       .  S
O134        C141   1.307       .  A
O135       Ni938   2.085   1_455  S
O135        C140   1.307       .  A
O136       Ni538   2.085   1_545  S
O136        C139   1.307       .  A
Ni137       O529   1.815       .  S
Ni137       O930   1.815       .  S
Ni137      O1332   1.815       .  S
Ni137      Ni138   2.191       .  S
Ni138      O1333   2.085       .  S
Ni138       O935   2.085       .  S
Ni138       O536   2.085       .  S
O143       Ni751   2.085   1_544  S
O143        C153   1.307       .  A
O144       Ni151   2.085       .  S
O144        C154   1.307       .  A
O145       Ni351   2.085   1_554  S
O145        C155   1.307       .  A
O146       Ni551   2.085   1_545  S
O146        C156   1.307       .  A
O147       Ni552   1.814   1_545  S
O147        C156   1.237       .  A
O148       Ni352   1.814   1_554  S
O148        C155   1.237       .  A
O149       Ni152   1.814       .  S
O149        C154   1.237       .  A
O150       Ni752   1.815   1_544  S
O150        C153   1.237       .  A
Ni151       O743   2.085       .  S
Ni151       O345   2.085       .  S
Ni151       O546   2.085       .  S
Ni151      Ni152   2.191       .  S
Ni152       O547   1.814       .  S
Ni152       O348   1.814       .  S
Ni152       O750   1.814       .  S
O157       Ni165   2.085   1_545  S
O157        C167   1.307       .  A
O158      Ni1365   2.085       .  S
O158        C168   1.307       .  A
O159       Ni565   2.085       .  S
O159        C169   1.307       .  A
O160       Ni965   2.084   1_545  S
O160        C170   1.307       .  A
O161      Ni1366   1.814   1_545  S
O161        C170   1.237       .  A
O162       Ni166   1.814       .  S
O162        C169   1.237       .  A
O163       Ni966   1.815       .  S
O163        C168   1.237       .  A
O164       Ni566   1.815   1_545  S
O164        C167   1.237       .  A
Ni165      O1358   2.085       .  S
Ni165       O559   2.085       .  S
Ni165       O960   2.084   1_565  S
Ni165      Ni566   2.191       .  S
Ni166      O1361   1.815       .  S
Ni166       O963   1.815       .  S
Ni166       O564   1.814       .  S
Ni166      Ni565   2.191       .  S
O171      Ni1179   1.815   1_454  S
O171        C181   1.237       .  A
O172       Ni179   1.814       .  S
O172        C182   1.237       .  A
O173       Ni379   1.815   1_554  S
O173        C183   1.237       .  A
O174       Ni979   1.815   1_455  S
O174        C184   1.237       .  A
O175       Ni980   2.085   1_455  S
O175        C184   1.307       .  A
O176       Ni380   2.085   1_554  S
O176        C183   1.307       .  A
O177       Ni180   2.085       .  S
O177        C182   1.307       .  A
O178      Ni1180   2.085   1_454  S
O178        C181   1.307       .  A
Ni179      O1171   1.815       .  S
Ni179       O373   1.815       .  S
Ni179       O974   1.815       .  S
Ni179      Ni180   2.191       .  S
Ni180       O975   2.085       .  S
Ni180       O376   2.085       .  S
Ni180      O1178   2.085       .  S
C185        C186   1.205       .  T
C187        C188   1.206       .  T
C189        C190   1.206       .  T
C191        C192   1.205       .  T
C193        C194   1.205       .  T
C195        C196   1.206       .  T
C197        C198   1.206       .  T
C199        C200   1.205       .  T
O201       Ni209   2.085       .  S
O201        C211   1.307       .  A
O202       Ni209   2.085       .  S
O202        C212   1.307       .  A
O203       Ni209   2.085       .  S
O203        C213   1.307       .  A
O204       Ni209   2.085       .  S
O204        C214   1.307       .  A
O205       Ni210   1.815       .  S
O205        C214   1.237       .  A
O206       Ni210   1.815       .  S
O206        C213   1.237       .  A
O207       Ni210   1.814       .  S
O207        C212   1.237       .  A
O208       Ni210   1.814       .  S
O208        C211   1.237       .  A
Ni209      Ni210   2.191       .  S
C211        C285   1.616       .  S
C212        C293   1.616       .  S
C213        C287   1.617       .  S
C214        C289   1.617       .  S
O215       Ni223   2.085       .  S
O215        C225   1.307       .  A
O216       Ni223   2.085       .  S
O216        C226   1.307       .  A
O217       Ni223   2.085       .  S
O217        C227   1.307       .  A
O218       Ni223   2.085       .  S
O218        C228   1.307       .  A
O219       Ni224   1.814       .  S
O219        C228   1.237       .  A
O220       Ni224   1.815       .  S
O220        C227   1.237       .  A
O221       Ni224   1.814       .  S
O221        C226   1.237       .  A
O222       Ni224   1.814       .  S
O222        C225   1.237       .  A
Ni223      Ni224   2.191       .  S
C225        C291   1.616       .  S
C226        C287   1.616       .  S
C227        C297   1.617       .  S
C228        C285   1.616       .  S
O229       Ni237   1.815       .  S
O229        C239   1.237       .  A
O230       Ni237   1.815       .  S
O230        C240   1.237       .  A
O231       Ni237   1.814       .  S
O231        C241   1.237       .  A
O232       Ni237   1.814       .  S
O232        C242   1.237       .  A
O233       Ni238   2.085       .  S
O233        C242   1.307       .  A
O234       Ni238   2.085       .  S
O234        C241   1.307       .  A
O235       Ni238   2.085       .  S
O235        C240   1.307       .  A
O236       Ni238   2.085       .  S
O236        C239   1.307       .  A
Ni237      Ni238   2.191       .  S
C239        C285   1.616       .  S
C240        C295   1.616       .  S
C241        C291   1.616       .  S
C242        C289   1.616       .  S
O243       Ni251   1.815       .  S
O243        C253   1.237       .  A
O244       Ni251   1.815       .  S
O244        C254   1.237       .  A
O245       Ni251   1.814       .  S
O245        C255   1.237       .  A
O246       Ni251   1.814       .  S
O246        C256   1.237       .  A
O247       Ni252   2.085       .  S
O247        C256   1.307       .  A
O248       Ni252   2.085       .  S
O248        C255   1.307       .  A
O249       Ni252   2.085       .  S
O249        C254   1.307       .  A
O250       Ni252   2.085       .  S
O250        C253   1.307       .  A
Ni251      Ni252   2.191       .  S
C253        C295   1.616       .  S
C254        C293   1.616       .  S
C255        C299   1.616       .  S
C256        C289   1.616       .  S
O257       Ni265   2.085       .  S
O257        C267   1.307       .  A
O258       Ni265   2.085       .  S
O258        C268   1.307       .  A
O259       Ni265   2.085       .  S
O259        C269   1.307       .  A
O260       Ni265   2.085       .  S
O260        C270   1.307       .  A
O261       Ni266   1.815       .  S
O261        C270   1.237       .  A
O262       Ni266   1.814       .  S
O262        C269   1.237       .  A
O263       Ni266   1.815       .  S
O263        C268   1.237       .  A
O264       Ni266   1.814       .  S
O264        C267   1.237       .  A
Ni265      Ni266   2.191       .  S
C267        C299   1.616       .  S
C268        C287   1.617       .  S
C269        C293   1.616       .  S
C270        C297   1.617       .  S
O271       Ni279   1.814       .  S
O271        C281   1.237       .  A
O272       Ni279   1.814       .  S
O272        C282   1.237       .  A
O273       Ni279   1.815       .  S
O273        C283   1.237       .  A
O274       Ni279   1.815       .  S
O274        C284   1.237       .  A
O275       Ni280   2.085       .  S
O275        C284   1.307       .  A
O276       Ni280   2.085       .  S
O276        C283   1.307       .  A
O277       Ni280   2.085       .  S
O277        C282   1.307       .  A
O278       Ni280   2.085       .  S
O278        C281   1.307       .  A
Ni279      Ni280   2.191       .  S
C281        C299   1.616       .  S
C282        C291   1.616       .  S
C283        C295   1.616       .  S
C284        C297   1.616       .  S
C285        C400   1.463       .  S
C286        C354   1.616       .  S
C286        C369   1.616       .  S
C286        C382   1.616       .  S
C286        C399   1.463       .  S
C287        C397   1.464       .  S
C288        C326   1.616       .  S
C288        C356   1.616       .  S
C288        C367   1.617       .  S
C288        C398   1.464       .  S
C289        C396   1.464       .  S
C290        C312   1.616       .  S
C290        C368   1.616       .  S
C290        C384   1.616       .  S
C290        C395   1.464       .  S
C291        C393   1.463       .  S
C292        C341   1.616       .  S
C292        C355   1.616       .  S
C292        C383   1.616       .  S
C292        C394   1.463       .  S
C293        C391   1.463       .  S
C294        C314   1.616       .  S
C294        C327   1.616       .  S
C294        C370   1.616       .  S
C294        C392   1.463       .  S
C295        C390   1.464       .  S
C296        C313   1.616       .  S
C296        C340   1.616       .  S
C296        C381   1.617       .  S
C296        C389   1.464       .  S
C297        C387   1.464       .  S
C298        C328   1.617       .  S
C298        C339   1.616       .  S
C298        C353   1.617       .  S
C298        C388   1.464       .  S
C299        C386   1.463       .  S
C300        C311   1.616       .  S
C300        C325   1.616       .  S
C300        C342   1.616       .  S
C300        C385   1.463       .  S
O301       Ni509   1.814   1_545  S
O301        C311   1.237       .  A
O302       Ni309   1.814       .  S
O302        C312   1.237       .  A
O303        C313   1.237       .  A
O304       Ni709   1.815   1_545  S
O304        C314   1.237       .  A
O305       Ni710   2.085   1_545  S
O305        C314   1.307       .  A
O306        C313   1.307       .  A
O307       Ni310   2.085       .  S
O307        C312   1.307       .  A
O308       Ni510   2.085   1_545  S
O308        C311   1.307       .  A
Ni309       O501   1.814   1_556  S
Ni309       O704   1.814       .  S
Ni309      Ni310   2.191       .  S
Ni310       O705   2.085       .  S
Ni310       O508   2.085   1_556  S
O315        C325   1.237       .  A
O316      Ni1123   1.815       .  S
O316        C326   1.237       .  A
O317       Ni323   1.814       .  S
O317        C327   1.237       .  A
O318       Ni923   1.815       .  S
O318        C328   1.237       .  A
O319       Ni924   2.085       .  S
O319        C328   1.307       .  A
O320       Ni324   2.085       .  S
O320        C327   1.307       .  A
O321      Ni1124   2.085       .  S
O321        C326   1.307       .  A
O322        C325   1.307       .  A
Ni323      O1116   1.815   1_455  S
Ni323       O918   1.815   1_456  S
Ni323      Ni324   2.191       .  S
Ni324       O919   2.085   1_456  S
Ni324      O1121   2.085   1_455  S
O329       Ni737   1.815   1_545  S
O329        C339   1.237       .  A
O330      Ni1137   1.815   1_455  S
O330        C340   1.237       .  A
O331       Ni337   1.814       .  S
O331        C341   1.237       .  A
O332      Ni1537   1.814   1_445  S
O332        C342   1.237       .  A
O333      Ni1538   2.085   1_445  S
O333        C342   1.307       .  A
O334       Ni338   2.085       .  S
O334        C341   1.307       .  A
O335      Ni1138   2.085   1_455  S
O335        C340   1.307       .  A
O336       Ni738   2.085   1_545  S
O336        C339   1.307       .  A
Ni337       O729   1.815       .  S
Ni337      O1130   1.815       .  S
Ni337      O1532   1.815       .  S
Ni337      Ni338   2.191       .  S
Ni338      O1533   2.085       .  S
Ni338      O1135   2.085       .  S
Ni338       O736   2.085       .  S
O343       Ni551   2.085   1_545  S
O343        C353   1.307       .  A
O344       Ni351   2.085       .  S
O344        C354   1.307       .  A
O345        C355   1.307       .  A
O346       Ni751   2.085   1_545  S
O346        C356   1.307       .  A
O347       Ni752   1.814   1_545  S
O347        C356   1.237       .  A
O348        C355   1.237       .  A
O349       Ni352   1.814       .  S
O349        C354   1.237       .  A
O350       Ni552   1.815   1_545  S
O350        C353   1.237       .  A
Ni351       O543   2.085   1_556  S
Ni351       O746   2.085       .  S
Ni351      Ni352   2.191       .  S
Ni352       O747   1.814       .  S
Ni352       O550   1.814   1_556  S
O357       Ni365   2.085   1_545  S
O357        C367   1.307       .  A
O358      Ni1565   2.085       .  S
O358        C368   1.307       .  A
O359       Ni765   2.085       .  S
O359        C369   1.307       .  A
O360      Ni1165   2.084   1_545  S
O360        C370   1.307       .  A
O361      Ni1566   1.814   1_545  S
O361        C370   1.237       .  A
O362       Ni366   1.814       .  S
O362        C369   1.237       .  A
O363      Ni1166   1.815       .  S
O363        C368   1.237       .  A
O364       Ni766   1.815   1_545  S
O364        C367   1.237       .  A
Ni365      O1558   2.085       .  S
Ni365       O759   2.085       .  S
Ni365      O1160   2.084   1_565  S
Ni365      Ni766   2.191       .  S
Ni366      O1561   1.815       .  S
Ni366      O1163   1.815       .  S
Ni366       O764   1.814       .  S
Ni366      Ni765   2.191       .  S
O371       Ni979   1.815   1_455  S
O371        C381   1.237       .  A
O372       Ni379   1.814       .  S
O372        C382   1.237       .  A
O373        C383   1.237       .  A
O374      Ni1179   1.815   1_455  S
O374        C384   1.237       .  A
O375      Ni1180   2.085   1_455  S
O375        C384   1.307       .  A
O376        C383   1.307       .  A
O377       Ni380   2.085       .  S
O377        C382   1.307       .  A
O378       Ni980   2.085   1_455  S
O378        C381   1.307       .  A
Ni379       O971   1.815   1_556  S
Ni379      O1174   1.815       .  S
Ni379      Ni380   2.191       .  S
Ni380      O1175   2.085       .  S
Ni380       O978   2.085   1_556  S
C385        C386   1.205       .  T
C387        C388   1.206       .  T
C389        C390   1.206       .  T
C391        C392   1.205       .  T
C393        C394   1.205       .  T
C395        C396   1.206       .  T
C397        C398   1.206       .  T
C399        C400   1.205       .  T
O401       Ni409   2.085       .  S
O401        C411   1.307       .  A
O402       Ni409   2.085       .  S
O402        C412   1.307       .  A
O403       Ni409   2.085       .  S
O403        C413   1.307       .  A
O404       Ni409   2.084       .  S
O404        C414   1.307       .  A
O405       Ni410   1.814       .  S
O405        C414   1.237       .  A
O406       Ni410   1.814       .  S
O406        C413   1.237       .  A
O407       Ni410   1.815       .  S
O407        C412   1.237       .  A
O408       Ni410   1.815       .  S
O408        C411   1.237       .  A
Ni409      Ni410   2.191       .  S
C411        C485   1.617       .  S
C412        C493   1.617       .  S
C413        C487   1.616       .  S
C414        C489   1.616       .  S
O415       Ni423   2.085       .  S
O415        C425   1.307       .  A
O416       Ni423   2.085       .  S
O416        C426   1.307       .  A
O417       Ni423   2.085       .  S
O417        C427   1.307       .  A
O418       Ni423   2.085       .  S
O418        C428   1.307       .  A
O419       Ni424   1.814       .  S
O419        C428   1.237       .  A
O420       Ni424   1.814       .  S
O420        C427   1.237       .  A
O421       Ni424   1.814       .  S
O421        C426   1.237       .  A
O422       Ni424   1.815       .  S
O422        C425   1.237       .  A
Ni423      Ni424   2.191       .  S
C425        C491   1.617       .  S
C426        C487   1.616       .  S
C427        C497   1.616       .  S
C428        C485   1.616       .  S
O429       Ni437   1.815       .  S
O429        C439   1.237       .  A
O430       Ni437   1.814       .  S
O430        C440   1.237       .  A
O431       Ni437   1.815       .  S
O431        C441   1.237       .  A
O432       Ni437   1.814       .  S
O432        C442   1.237       .  A
O433       Ni438   2.085       .  S
O433        C442   1.307       .  A
O434       Ni438   2.085       .  S
O434        C441   1.307       .  A
O435       Ni438   2.085       .  S
O435        C440   1.307       .  A
O436       Ni438   2.085       .  S
O436        C439   1.307       .  A
Ni437      Ni438   2.191       .  S
C439        C485   1.617       .  S
C440        C495   1.616       .  S
C441        C491   1.617       .  S
C442        C489   1.616       .  S
O443       Ni451   1.814       .  S
O443        C453   1.237       .  A
O444       Ni451   1.814       .  S
O444        C454   1.237       .  A
O445       Ni451   1.814       .  S
O445        C455   1.237       .  A
O446       Ni451   1.814       .  S
O446        C456   1.237       .  A
O447       Ni452   2.085       .  S
O447        C456   1.307       .  A
O448       Ni452   2.085       .  S
O448        C455   1.307       .  A
O449       Ni452   2.085       .  S
O449        C454   1.307       .  A
O450       Ni452   2.085       .  S
O450        C453   1.307       .  A
Ni451      Ni452   2.191       .  S
C453        C495   1.616       .  S
C454        C493   1.616       .  S
C455        C499   1.616       .  S
C456        C489   1.616       .  S
O457       Ni465   2.085       .  S
O457        C467   1.307       .  A
O458       Ni465   2.085       .  S
O458        C468   1.307       .  A
O459       Ni465   2.085       .  S
O459        C469   1.307       .  A
O460       Ni465   2.085       .  S
O460        C470   1.307       .  A
O461       Ni466   1.814       .  S
O461        C470   1.237       .  A
O462       Ni466   1.815       .  S
O462        C469   1.237       .  A
O463       Ni466   1.815       .  S
O463        C468   1.237       .  A
O464       Ni466   1.815       .  S
O464        C467   1.237       .  A
Ni465      Ni466   2.191       .  S
C467        C499   1.616       .  S
C468        C487   1.617       .  S
C469        C493   1.616       .  S
C470        C497   1.616       .  S
O471       Ni479   1.815       .  S
O471        C481   1.237       .  A
O472       Ni479   1.815       .  S
O472        C482   1.237       .  A
O473       Ni479   1.814       .  S
O473        C483   1.237       .  A
O474       Ni479   1.814       .  S
O474        C484   1.237       .  A
O475       Ni480   2.085       .  S
O475        C484   1.307       .  A
O476       Ni480   2.085       .  S
O476        C483   1.307       .  A
O477       Ni480   2.085       .  S
O477        C482   1.307       .  A
O478       Ni480   2.085       .  S
O478        C481   1.307       .  A
Ni479      Ni480   2.191       .  S
C481        C499   1.616       .  S
C482        C491   1.616       .  S
C483        C495   1.616       .  S
C484        C497   1.616       .  S
C485        C600   1.464       .  S
C486        C554   1.616       .  S
C486        C569   1.617       .  S
C486        C582   1.617       .  S
C486        C599   1.464       .  S
C487        C597   1.464       .  S
C488        C526   1.616       .  S
C488        C556   1.616       .  S
C488        C567   1.616       .  S
C488        C598   1.464       .  S
C489        C596   1.463       .  S
C490        C512   1.616       .  S
C490        C568   1.616       .  S
C490        C584   1.616       .  S
C490        C595   1.463       .  S
C491        C593   1.464       .  S
C492        C541   1.617       .  S
C492        C555   1.617       .  S
C492        C583   1.617       .  S
C492        C594   1.464       .  S
C493        C591   1.464       .  S
C494        C514   1.616       .  S
C494        C527   1.616       .  S
C494        C570   1.616       .  S
C494        C592   1.464       .  S
C495        C590   1.463       .  S
C496        C513   1.616       .  S
C496        C540   1.616       .  S
C496        C581   1.616       .  S
C496        C589   1.463       .  S
C497        C587   1.463       .  S
C498        C528   1.616       .  S
C498        C539   1.616       .  S
C498        C553   1.616       .  S
C498        C588   1.463       .  S
C499        C586   1.464       .  S
C500        C511   1.616       .  S
C500        C525   1.616       .  S
C500        C542   1.616       .  S
C500        C585   1.464       .  S
O501        C511   1.237       .  A
O502       Ni509   1.814       .  S
O502        C512   1.237       .  A
O503       Ni709   1.814   1_554  S
O503        C513   1.237       .  A
O504        C514   1.237       .  A
O505        C514   1.307       .  A
O506       Ni710   2.085   1_554  S
O506        C513   1.307       .  A
O507       Ni510   2.085       .  S
O507        C512   1.307       .  A
O508        C511   1.307       .  A
Ni509       O703   1.814       .  S
Ni509      Ni510   2.191       .  S
Ni510       O706   2.085       .  S
O515       Ni723   1.815   1_554  S
O515        C525   1.237       .  A
O516      Ni1323   1.815       .  S
O516        C526   1.237       .  A
O517       Ni523   1.814       .  S
O517        C527   1.237       .  A
O518      Ni1523   1.814   1_554  S
O518        C528   1.237       .  A
O519      Ni1524   2.085   1_554  S
O519        C528   1.307       .  A
O520       Ni524   2.085       .  S
O520        C527   1.307       .  A
O521      Ni1324   2.085       .  S
O521        C526   1.307       .  A
O522       Ni724   2.085   1_554  S
O522        C525   1.307       .  A
Ni523       O715   1.815       .  S
Ni523      O1316   1.815   1_455  S
Ni523      O1518   1.814   1_455  S
Ni523      Ni524   2.191       .  S
Ni524      O1519   2.085   1_455  S
Ni524      O1321   2.085   1_455  S
Ni524       O722   2.085       .  S
O529        C539   1.237       .  A
O530      Ni1337   1.815   1_455  S
O530        C540   1.237       .  A
O531       Ni537   1.814       .  S
O531        C541   1.237       .  A
O532       Ni937   1.815   1_455  S
O532        C542   1.237       .  A
O533       Ni938   2.085   1_455  S
O533        C542   1.307       .  A
O534       Ni538   2.085       .  S
O534        C541   1.307       .  A
O535      Ni1338   2.085   1_455  S
O535        C540   1.307       .  A
O536        C539   1.307       .  A
Ni537      O1330   1.815       .  S
Ni537       O932   1.814   1_565  S
Ni537      Ni538   2.191       .  S
Ni538       O933   2.085   1_565  S
Ni538      O1335   2.085       .  S
O543        C553   1.307       .  A
O544       Ni551   2.085       .  S
O544        C554   1.307       .  A
O545       Ni751   2.085   1_554  S
O545        C555   1.307       .  A
O546        C556   1.307       .  A
O547        C556   1.237       .  A
O548       Ni752   1.815   1_554  S
O548        C555   1.237       .  A
O549       Ni552   1.814       .  S
O549        C554   1.237       .  A
O550        C553   1.237       .  A
Ni551       O745   2.085       .  S
Ni551      Ni552   2.191       .  S
Ni552       O748   1.815       .  S
O557       Ni565   2.085       .  S
O557        C567   1.307       .  A
O558       Ni965   2.085       .  S
O558        C568   1.307       .  A
O559        C569   1.307       .  A
O560      Ni1365   2.085       .  S
O560        C570   1.307       .  A
O561       Ni966   1.815       .  S
O561        C570   1.237       .  A
O562       Ni566   1.815       .  S
O562        C569   1.237       .  A
O563      Ni1366   1.814       .  S
O563        C568   1.237       .  A
O564        C567   1.237       .  A
Ni565       O958   2.085       .  S
Ni565      O1360   2.085       .  S
Ni566       O961   1.814   1_565  S
Ni566      O1363   1.814       .  S
O571      Ni1579   1.814   1_554  S
O571        C581   1.237       .  A
O572       Ni579   1.815       .  S
O572        C582   1.237       .  A
O573       Ni779   1.815   1_554  S
O573        C583   1.237       .  A
O574      Ni1379   1.814       .  S
O574        C584   1.237       .  A
O575      Ni1380   2.085       .  S
O575        C584   1.307       .  A
O576       Ni780   2.085   1_554  S
O576        C583   1.307       .  A
O577       Ni580   2.085       .  S
O577        C582   1.307       .  A
O578      Ni1580   2.085   1_554  S
O578        C581   1.307       .  A
Ni579      O1571   1.814       .  S
Ni579       O773   1.815       .  S
Ni579      O1374   1.814       .  S
Ni579      Ni580   2.191       .  S
Ni580      O1375   2.085       .  S
Ni580       O776   2.085       .  S
Ni580      O1578   2.085       .  S
C585        C586   1.206       .  T
C587        C588   1.205       .  T
C589        C590   1.205       .  T
C591        C592   1.206       .  T
C593        C594   1.206       .  T
C595        C596   1.205       .  T
C597        C598   1.206       .  T
C599        C600   1.206       .  T
O601       Ni609   2.085       .  S
O601        C611   1.307       .  A
O602       Ni609   2.085       .  S
O602        C612   1.307       .  A
O603       Ni609   2.085       .  S
O603        C613   1.307       .  A
O604       Ni609   2.084       .  S
O604        C614   1.307       .  A
O605       Ni610   1.814       .  S
O605        C614   1.237       .  A
O606       Ni610   1.814       .  S
O606        C613   1.237       .  A
O607       Ni610   1.815       .  S
O607        C612   1.237       .  A
O608       Ni610   1.815       .  S
O608        C611   1.237       .  A
Ni609      Ni610   2.191       .  S
C611        C685   1.617       .  S
C612        C693   1.617       .  S
C613        C687   1.616       .  S
C614        C689   1.616       .  S
O615       Ni623   2.085       .  S
O615        C625   1.307       .  A
O616       Ni623   2.085       .  S
O616        C626   1.307       .  A
O617       Ni623   2.085       .  S
O617        C627   1.307       .  A
O618       Ni623   2.085       .  S
O618        C628   1.307       .  A
O619       Ni624   1.814       .  S
O619        C628   1.237       .  A
O620       Ni624   1.814       .  S
O620        C627   1.237       .  A
O621       Ni624   1.814       .  S
O621        C626   1.237       .  A
O622       Ni624   1.815       .  S
O622        C625   1.237       .  A
Ni623      Ni624   2.191       .  S
C625        C691   1.617       .  S
C626        C687   1.616       .  S
C627        C697   1.616       .  S
C628        C685   1.616       .  S
O629       Ni637   1.815       .  S
O629        C639   1.237       .  A
O630       Ni637   1.814       .  S
O630        C640   1.237       .  A
O631       Ni637   1.815       .  S
O631        C641   1.237       .  A
O632       Ni637   1.814       .  S
O632        C642   1.237       .  A
O633       Ni638   2.085       .  S
O633        C642   1.307       .  A
O634       Ni638   2.085       .  S
O634        C641   1.307       .  A
O635       Ni638   2.085       .  S
O635        C640   1.307       .  A
O636       Ni638   2.085       .  S
O636        C639   1.307       .  A
Ni637      Ni638   2.191       .  S
C639        C685   1.617       .  S
C640        C695   1.616       .  S
C641        C691   1.617       .  S
C642        C689   1.616       .  S
O643       Ni651   1.814       .  S
O643        C653   1.237       .  A
O644       Ni651   1.814       .  S
O644        C654   1.237       .  A
O645       Ni651   1.814       .  S
O645        C655   1.237       .  A
O646       Ni651   1.814       .  S
O646        C656   1.237       .  A
O647       Ni652   2.085       .  S
O647        C656   1.307       .  A
O648       Ni652   2.085       .  S
O648        C655   1.307       .  A
O649       Ni652   2.085       .  S
O649        C654   1.307       .  A
O650       Ni652   2.085       .  S
O650        C653   1.307       .  A
Ni651      Ni652   2.191       .  S
C653        C695   1.616       .  S
C654        C693   1.616       .  S
C655        C699   1.616       .  S
C656        C689   1.616       .  S
O657       Ni665   2.085       .  S
O657        C667   1.307       .  A
O658       Ni665   2.085       .  S
O658        C668   1.307       .  A
O659       Ni665   2.085       .  S
O659        C669   1.307       .  A
O660       Ni665   2.085       .  S
O660        C670   1.307       .  A
O661       Ni666   1.814       .  S
O661        C670   1.237       .  A
O662       Ni666   1.815       .  S
O662        C669   1.237       .  A
O663       Ni666   1.815       .  S
O663        C668   1.237       .  A
O664       Ni666   1.815       .  S
O664        C667   1.237       .  A
Ni665      Ni666   2.191       .  S
C667        C699   1.616       .  S
C668        C687   1.617       .  S
C669        C693   1.616       .  S
C670        C697   1.616       .  S
O671       Ni679   1.815       .  S
O671        C681   1.237       .  A
O672       Ni679   1.815       .  S
O672        C682   1.237       .  A
O673       Ni679   1.814       .  S
O673        C683   1.237       .  A
O674       Ni679   1.814       .  S
O674        C684   1.237       .  A
O675       Ni680   2.085       .  S
O675        C684   1.307       .  A
O676       Ni680   2.085       .  S
O676        C683   1.307       .  A
O677       Ni680   2.085       .  S
O677        C682   1.307       .  A
O678       Ni680   2.085       .  S
O678        C681   1.307       .  A
Ni679      Ni680   2.191       .  S
C681        C699   1.616       .  S
C682        C691   1.616       .  S
C683        C695   1.616       .  S
C684        C697   1.616       .  S
C685        C800   1.464       .  S
C686        C754   1.616       .  S
C686        C769   1.617       .  S
C686        C782   1.617       .  S
C686        C799   1.464       .  S
C687        C797   1.464       .  S
C688        C726   1.616       .  S
C688        C756   1.616       .  S
C688        C767   1.616       .  S
C688        C798   1.464       .  S
C689        C796   1.463       .  S
C690        C712   1.616       .  S
C690        C768   1.616       .  S
C690        C784   1.616       .  S
C690        C795   1.463       .  S
C691        C793   1.464       .  S
C692        C741   1.617       .  S
C692        C755   1.617       .  S
C692        C783   1.617       .  S
C692        C794   1.464       .  S
C693        C791   1.464       .  S
C694        C714   1.616       .  S
C694        C727   1.616       .  S
C694        C770   1.616       .  S
C694        C792   1.464       .  S
C695        C790   1.463       .  S
C696        C713   1.616       .  S
C696        C740   1.616       .  S
C696        C781   1.616       .  S
C696        C789   1.463       .  S
C697        C787   1.463       .  S
C698        C728   1.616       .  S
C698        C739   1.616       .  S
C698        C753   1.616       .  S
C698        C788   1.463       .  S
C699        C786   1.464       .  S
C700        C711   1.616       .  S
C700        C725   1.616       .  S
C700        C742   1.616       .  S
C700        C785   1.464       .  S
O701        C711   1.237       .  A
O702       Ni709   1.814       .  S
O702        C712   1.237       .  A
O703        C713   1.237       .  A
O704        C714   1.237       .  A
O705        C714   1.307       .  A
O706        C713   1.307       .  A
O707       Ni710   2.085       .  S
O707        C712   1.307       .  A
O708        C711   1.307       .  A
Ni709      Ni710   2.191       .  S
O715        C725   1.237       .  A
O716      Ni1523   1.815       .  S
O716        C726   1.237       .  A
O717       Ni723   1.814       .  S
O717        C727   1.237       .  A
O718      Ni1323   1.814       .  S
O718        C728   1.237       .  A
O719      Ni1324   2.085       .  S
O719        C728   1.307       .  A
O720       Ni724   2.085       .  S
O720        C727   1.307       .  A
O721      Ni1524   2.085       .  S
O721        C726   1.307       .  A
O722        C725   1.307       .  A
Ni723      O1516   1.815   1_455  S
Ni723      O1318   1.814   1_456  S
Ni723      Ni724   2.191       .  S
Ni724      O1319   2.085   1_456  S
Ni724      O1521   2.085   1_455  S
O729        C739   1.237       .  A
O730      Ni1537   1.815   1_455  S
O730        C740   1.237       .  A
O731       Ni737   1.814       .  S
O731        C741   1.237       .  A
O732      Ni1137   1.815   1_455  S
O732        C742   1.237       .  A
O733      Ni1138   2.085   1_455  S
O733        C742   1.307       .  A
O734       Ni738   2.085       .  S
O734        C741   1.307       .  A
O735      Ni1538   2.085   1_455  S
O735        C740   1.307       .  A
O736        C739   1.307       .  A
Ni737      O1530   1.815       .  S
Ni737      O1132   1.814   1_565  S
Ni737      Ni738   2.191       .  S
Ni738      O1133   2.085   1_565  S
Ni738      O1535   2.085       .  S
O743        C753   1.307       .  A
O744       Ni751   2.085       .  S
O744        C754   1.307       .  A
O745        C755   1.307       .  A
O746        C756   1.307       .  A
O747        C756   1.237       .  A
O748        C755   1.237       .  A
O749       Ni752   1.814       .  S
O749        C754   1.237       .  A
O750        C753   1.237       .  A
Ni751      Ni752   2.191       .  S
O757       Ni765   2.085       .  S
O757        C767   1.307       .  A
O758      Ni1165   2.085       .  S
O758        C768   1.307       .  A
O759        C769   1.307       .  A
O760      Ni1565   2.085       .  S
O760        C770   1.307       .  A
O761      Ni1166   1.815       .  S
O761        C770   1.237       .  A
O762       Ni766   1.815       .  S
O762        C769   1.237       .  A
O763      Ni1566   1.814       .  S
O763        C768   1.237       .  A
O764        C767   1.237       .  A
Ni765      O1158   2.085       .  S
Ni765      O1560   2.085       .  S
Ni766      O1161   1.814   1_565  S
Ni766      O1563   1.814       .  S
O771      Ni1379   1.814       .  S
O771        C781   1.237       .  A
O772       Ni779   1.815       .  S
O772        C782   1.237       .  A
O773        C783   1.237       .  A
O774      Ni1579   1.814       .  S
O774        C784   1.237       .  A
O775      Ni1580   2.085       .  S
O775        C784   1.307       .  A
O776        C783   1.307       .  A
O777       Ni780   2.085       .  S
O777        C782   1.307       .  A
O778      Ni1380   2.085       .  S
O778        C781   1.307       .  A
Ni779      O1371   1.814   1_556  S
Ni779      O1574   1.814       .  S
Ni779      Ni780   2.191       .  S
Ni780      O1575   2.085       .  S
Ni780      O1378   2.085   1_556  S
C785        C786   1.206       .  T
C787        C788   1.205       .  T
C789        C790   1.205       .  T
C791        C792   1.206       .  T
C793        C794   1.206       .  T
C795        C796   1.205       .  T
C797        C798   1.206       .  T
C799        C800   1.206       .  T
O801       Ni809   2.085       .  S
O801        C811   1.307       .  A
O802       Ni809   2.085       .  S
O802        C812   1.307       .  A
O803       Ni809   2.085       .  S
O803        C813   1.307       .  A
O804       Ni809   2.085       .  S
O804        C814   1.307       .  A
O805       Ni810   1.815       .  S
O805        C814   1.237       .  A
O806       Ni810   1.815       .  S
O806        C813   1.237       .  A
O807       Ni810   1.814       .  S
O807        C812   1.237       .  A
O808       Ni810   1.814       .  S
O808        C811   1.237       .  A
Ni809      Ni810   2.191       .  S
C811        C885   1.616       .  S
C812        C893   1.616       .  S
C813        C887   1.617       .  S
C814        C889   1.617       .  S
O815       Ni823   2.085       .  S
O815        C825   1.307       .  A
O816       Ni823   2.085       .  S
O816        C826   1.307       .  A
O817       Ni823   2.085       .  S
O817        C827   1.307       .  A
O818       Ni823   2.085       .  S
O818        C828   1.307       .  A
O819       Ni824   1.814       .  S
O819        C828   1.237       .  A
O820       Ni824   1.815       .  S
O820        C827   1.237       .  A
O821       Ni824   1.814       .  S
O821        C826   1.237       .  A
O822       Ni824   1.814       .  S
O822        C825   1.237       .  A
Ni823      Ni824   2.191       .  S
C825        C891   1.616       .  S
C826        C887   1.616       .  S
C827        C897   1.617       .  S
C828        C885   1.616       .  S
O829       Ni837   1.815       .  S
O829        C839   1.237       .  A
O830       Ni837   1.815       .  S
O830        C840   1.237       .  A
O831       Ni837   1.814       .  S
O831        C841   1.237       .  A
O832       Ni837   1.814       .  S
O832        C842   1.237       .  A
O833       Ni838   2.085       .  S
O833        C842   1.307       .  A
O834       Ni838   2.085       .  S
O834        C841   1.307       .  A
O835       Ni838   2.085       .  S
O835        C840   1.307       .  A
O836       Ni838   2.085       .  S
O836        C839   1.307       .  A
Ni837      Ni838   2.191       .  S
C839        C885   1.616       .  S
C840        C895   1.616       .  S
C841        C891   1.616       .  S
C842        C889   1.616       .  S
O843       Ni851   1.815       .  S
O843        C853   1.237       .  A
O844       Ni851   1.815       .  S
O844        C854   1.237       .  A
O845       Ni851   1.814       .  S
O845        C855   1.237       .  A
O846       Ni851   1.814       .  S
O846        C856   1.237       .  A
O847       Ni852   2.085       .  S
O847        C856   1.307       .  A
O848       Ni852   2.085       .  S
O848        C855   1.307       .  A
O849       Ni852   2.085       .  S
O849        C854   1.307       .  A
O850       Ni852   2.085       .  S
O850        C853   1.307       .  A
Ni851      Ni852   2.191       .  S
C853        C895   1.616       .  S
C854        C893   1.616       .  S
C855        C899   1.616       .  S
C856        C889   1.616       .  S
O857       Ni865   2.085       .  S
O857        C867   1.307       .  A
O858       Ni865   2.085       .  S
O858        C868   1.307       .  A
O859       Ni865   2.085       .  S
O859        C869   1.307       .  A
O860       Ni865   2.085       .  S
O860        C870   1.307       .  A
O861       Ni866   1.815       .  S
O861        C870   1.237       .  A
O862       Ni866   1.814       .  S
O862        C869   1.237       .  A
O863       Ni866   1.815       .  S
O863        C868   1.237       .  A
O864       Ni866   1.814       .  S
O864        C867   1.237       .  A
Ni865      Ni866   2.191       .  S
C867        C899   1.616       .  S
C868        C887   1.617       .  S
C869        C893   1.616       .  S
C870        C897   1.617       .  S
O871       Ni879   1.814       .  S
O871        C881   1.237       .  A
O872       Ni879   1.814       .  S
O872        C882   1.237       .  A
O873       Ni879   1.815       .  S
O873        C883   1.237       .  A
O874       Ni879   1.815       .  S
O874        C884   1.237       .  A
O875       Ni880   2.085       .  S
O875        C884   1.307       .  A
O876       Ni880   2.085       .  S
O876        C883   1.307       .  A
O877       Ni880   2.085       .  S
O877        C882   1.307       .  A
O878       Ni880   2.085       .  S
O878        C881   1.307       .  A
Ni879      Ni880   2.191       .  S
C881        C899   1.616       .  S
C882        C891   1.616       .  S
C883        C895   1.616       .  S
C884        C897   1.616       .  S
C885       C1000   1.463       .  S
C886        C954   1.616       .  S
C886        C969   1.616       .  S
C886        C982   1.616       .  S
C886        C999   1.463       .  S
C887        C997   1.464       .  S
C888        C926   1.616       .  S
C888        C956   1.616       .  S
C888        C967   1.617       .  S
C888        C998   1.464       .  S
C889        C996   1.464       .  S
C890        C912   1.616       .  S
C890        C968   1.616       .  S
C890        C984   1.616       .  S
C890        C995   1.464       .  S
C891        C993   1.463       .  S
C892        C941   1.616       .  S
C892        C955   1.616       .  S
C892        C983   1.616       .  S
C892        C994   1.463       .  S
C893        C991   1.463       .  S
C894        C914   1.616       .  S
C894        C927   1.616       .  S
C894        C970   1.616       .  S
C894        C992   1.463       .  S
C895        C990   1.464       .  S
C896        C913   1.616       .  S
C896        C940   1.616       .  S
C896        C981   1.617       .  S
C896        C989   1.464       .  S
C897        C987   1.464       .  S
C898        C928   1.617       .  S
C898        C939   1.616       .  S
C898        C953   1.617       .  S
C898        C988   1.464       .  S
C899        C986   1.463       .  S
C900        C911   1.616       .  S
C900        C925   1.616       .  S
C900        C942   1.616       .  S
C900        C985   1.463       .  S
O901      Ni1509   1.814   1_544  S
O901        C911   1.237       .  A
O902       Ni909   1.814       .  S
O902        C912   1.237       .  A
O903      Ni1109   1.814   1_554  S
O903        C913   1.237       .  A
O904      Ni1309   1.815   1_545  S
O904        C914   1.237       .  A
O905      Ni1310   2.085   1_545  S
O905        C914   1.307       .  A
O906      Ni1110   2.085   1_554  S
O906        C913   1.307       .  A
O907       Ni910   2.085       .  S
O907        C912   1.307       .  A
O908      Ni1510   2.085   1_544  S
O908        C911   1.307       .  A
Ni909      O1501   1.814       .  S
Ni909      O1103   1.814       .  S
Ni909      O1304   1.814       .  S
Ni909      Ni910   2.191       .  S
Ni910      O1305   2.085       .  S
Ni910      O1106   2.085       .  S
Ni910      O1508   2.085       .  S
O915      Ni1123   1.815   1_554  S
O915        C925   1.237       .  A
O916        C926   1.237       .  A
O917       Ni923   1.814       .  S
O917        C927   1.237       .  A
O918        C928   1.237       .  A
O919        C928   1.307       .  A
O920       Ni924   2.085       .  S
O920        C927   1.307       .  A
O921        C926   1.307       .  A
O922      Ni1124   2.085   1_554  S
O922        C925   1.307       .  A
Ni923      O1115   1.815       .  S
Ni923      Ni924   2.191       .  S
Ni924      O1122   2.085       .  S
O929      Ni1337   1.815   1_545  S
O929        C939   1.237       .  A
O930        C940   1.237       .  A
O931       Ni937   1.814       .  S
O931        C941   1.237       .  A
O932        C942   1.237       .  A
O933        C942   1.307       .  A
O934       Ni938   2.085       .  S
O934        C941   1.307       .  A
O935        C940   1.307       .  A
O936      Ni1338   2.085   1_545  S
O936        C939   1.307       .  A
Ni937      O1329   1.815       .  S
Ni937      Ni938   2.191       .  S
Ni938      O1336   2.085       .  S
O943      Ni1551   2.085   1_544  S
O943        C953   1.307       .  A
O944       Ni951   2.085       .  S
O944        C954   1.307       .  A
O945      Ni1151   2.085   1_554  S
O945        C955   1.307       .  A
O946      Ni1351   2.085   1_545  S
O946        C956   1.307       .  A
O947      Ni1352   1.814   1_545  S
O947        C956   1.237       .  A
O948      Ni1152   1.814   1_554  S
O948        C955   1.237       .  A
O949       Ni952   1.814       .  S
O949        C954   1.237       .  A
O950      Ni1552   1.815   1_544  S
O950        C953   1.237       .  A
Ni951      O1543   2.085       .  S
Ni951      O1145   2.085       .  S
Ni951      O1346   2.085       .  S
Ni951      Ni952   2.191       .  S
Ni952      O1347   1.814       .  S
Ni952      O1148   1.814       .  S
Ni952      O1550   1.814       .  S
O957       Ni965   2.085   1_645  S
O957        C967   1.307       .  A
O958        C968   1.307       .  A
O959      Ni1365   2.085   1_655  S
O959        C969   1.307       .  A
O960        C970   1.307       .  A
O961        C970   1.237       .  A
O962       Ni966   1.814   1_655  S
O962        C969   1.237       .  A
O963        C968   1.237       .  A
O964      Ni1366   1.815   1_645  S
O964        C967   1.237       .  A
Ni965      O1359   2.085   1_455  S
Ni965     Ni1366   2.191       .  S
Ni966      O1364   1.814   1_455  S
Ni966     Ni1365   2.191       .  S
O971        C981   1.237       .  A
O972       Ni979   1.814       .  S
O972        C982   1.237       .  A
O973      Ni1179   1.815   1_554  S
O973        C983   1.237       .  A
O974        C984   1.237       .  A
O975        C984   1.307       .  A
O976      Ni1180   2.085   1_554  S
O976        C983   1.307       .  A
O977       Ni980   2.085       .  S
O977        C982   1.307       .  A
O978        C981   1.307       .  A
Ni979      O1173   1.815       .  S
Ni979      Ni980   2.191       .  S
Ni980      O1176   2.085       .  S
C985        C986   1.205       .  T
C987        C988   1.206       .  T
C989        C990   1.206       .  T
C991        C992   1.205       .  T
C993        C994   1.205       .  T
C995        C996   1.206       .  T
C997        C998   1.206       .  T
C999       C1000   1.205       .  T
O1001     Ni1009   2.085       .  S
O1001      C1011   1.307       .  A
O1002     Ni1009   2.085       .  S
O1002      C1012   1.307       .  A
O1003     Ni1009   2.085       .  S
O1003      C1013   1.307       .  A
O1004     Ni1009   2.085       .  S
O1004      C1014   1.307       .  A
O1005     Ni1010   1.815       .  S
O1005      C1014   1.237       .  A
O1006     Ni1010   1.815       .  S
O1006      C1013   1.237       .  A
O1007     Ni1010   1.814       .  S
O1007      C1012   1.237       .  A
O1008     Ni1010   1.814       .  S
O1008      C1011   1.237       .  A
Ni1009    Ni1010   2.191       .  S
C1011      C1085   1.616       .  S
C1012      C1093   1.616       .  S
C1013      C1087   1.617       .  S
C1014      C1089   1.617       .  S
O1015     Ni1023   2.085       .  S
O1015      C1025   1.307       .  A
O1016     Ni1023   2.085       .  S
O1016      C1026   1.307       .  A
O1017     Ni1023   2.085       .  S
O1017      C1027   1.307       .  A
O1018     Ni1023   2.085       .  S
O1018      C1028   1.307       .  A
O1019     Ni1024   1.814       .  S
O1019      C1028   1.237       .  A
O1020     Ni1024   1.815       .  S
O1020      C1027   1.237       .  A
O1021     Ni1024   1.814       .  S
O1021      C1026   1.237       .  A
O1022     Ni1024   1.814       .  S
O1022      C1025   1.237       .  A
Ni1023    Ni1024   2.191       .  S
C1025      C1091   1.616       .  S
C1026      C1087   1.616       .  S
C1027      C1097   1.617       .  S
C1028      C1085   1.616       .  S
O1029     Ni1037   1.815       .  S
O1029      C1039   1.237       .  A
O1030     Ni1037   1.815       .  S
O1030      C1040   1.237       .  A
O1031     Ni1037   1.814       .  S
O1031      C1041   1.237       .  A
O1032     Ni1037   1.814       .  S
O1032      C1042   1.237       .  A
O1033     Ni1038   2.085       .  S
O1033      C1042   1.307       .  A
O1034     Ni1038   2.085       .  S
O1034      C1041   1.307       .  A
O1035     Ni1038   2.085       .  S
O1035      C1040   1.307       .  A
O1036     Ni1038   2.085       .  S
O1036      C1039   1.307       .  A
Ni1037    Ni1038   2.191       .  S
C1039      C1085   1.616       .  S
C1040      C1095   1.616       .  S
C1041      C1091   1.616       .  S
C1042      C1089   1.616       .  S
O1043     Ni1051   1.815       .  S
O1043      C1053   1.237       .  A
O1044     Ni1051   1.815       .  S
O1044      C1054   1.237       .  A
O1045     Ni1051   1.814       .  S
O1045      C1055   1.237       .  A
O1046     Ni1051   1.814       .  S
O1046      C1056   1.237       .  A
O1047     Ni1052   2.085       .  S
O1047      C1056   1.307       .  A
O1048     Ni1052   2.085       .  S
O1048      C1055   1.307       .  A
O1049     Ni1052   2.085       .  S
O1049      C1054   1.307       .  A
O1050     Ni1052   2.085       .  S
O1050      C1053   1.307       .  A
Ni1051    Ni1052   2.191       .  S
C1053      C1095   1.616       .  S
C1054      C1093   1.616       .  S
C1055      C1099   1.616       .  S
C1056      C1089   1.616       .  S
O1057     Ni1065   2.085       .  S
O1057      C1067   1.307       .  A
O1058     Ni1065   2.085       .  S
O1058      C1068   1.307       .  A
O1059     Ni1065   2.085       .  S
O1059      C1069   1.307       .  A
O1060     Ni1065   2.085       .  S
O1060      C1070   1.307       .  A
O1061     Ni1066   1.815       .  S
O1061      C1070   1.237       .  A
O1062     Ni1066   1.814       .  S
O1062      C1069   1.237       .  A
O1063     Ni1066   1.815       .  S
O1063      C1068   1.237       .  A
O1064     Ni1066   1.814       .  S
O1064      C1067   1.237       .  A
Ni1065    Ni1066   2.191       .  S
C1067      C1099   1.616       .  S
C1068      C1087   1.617       .  S
C1069      C1093   1.616       .  S
C1070      C1097   1.617       .  S
O1071     Ni1079   1.814       .  S
O1071      C1081   1.237       .  A
O1072     Ni1079   1.814       .  S
O1072      C1082   1.237       .  A
O1073     Ni1079   1.815       .  S
O1073      C1083   1.237       .  A
O1074     Ni1079   1.815       .  S
O1074      C1084   1.237       .  A
O1075     Ni1080   2.085       .  S
O1075      C1084   1.307       .  A
O1076     Ni1080   2.085       .  S
O1076      C1083   1.307       .  A
O1077     Ni1080   2.085       .  S
O1077      C1082   1.307       .  A
O1078     Ni1080   2.085       .  S
O1078      C1081   1.307       .  A
Ni1079    Ni1080   2.191       .  S
C1081      C1099   1.616       .  S
C1082      C1091   1.616       .  S
C1083      C1095   1.616       .  S
C1084      C1097   1.616       .  S
C1085      C1200   1.463       .  S
C1086      C1154   1.616       .  S
C1086      C1169   1.616       .  S
C1086      C1182   1.616       .  S
C1086      C1199   1.463       .  S
C1087      C1197   1.464       .  S
C1088      C1126   1.616       .  S
C1088      C1156   1.616       .  S
C1088      C1167   1.617       .  S
C1088      C1198   1.464       .  S
C1089      C1196   1.464       .  S
C1090      C1112   1.616       .  S
C1090      C1168   1.616       .  S
C1090      C1184   1.616       .  S
C1090      C1195   1.464       .  S
C1091      C1193   1.463       .  S
C1092      C1141   1.616       .  S
C1092      C1155   1.616       .  S
C1092      C1183   1.616       .  S
C1092      C1194   1.463       .  S
C1093      C1191   1.463       .  S
C1094      C1114   1.616       .  S
C1094      C1127   1.616       .  S
C1094      C1170   1.616       .  S
C1094      C1192   1.463       .  S
C1095      C1190   1.464       .  S
C1096      C1113   1.616       .  S
C1096      C1140   1.616       .  S
C1096      C1181   1.617       .  S
C1096      C1189   1.464       .  S
C1097      C1187   1.464       .  S
C1098      C1128   1.617       .  S
C1098      C1139   1.616       .  S
C1098      C1153   1.617       .  S
C1098      C1188   1.464       .  S
C1099      C1186   1.463       .  S
C1100      C1111   1.616       .  S
C1100      C1125   1.616       .  S
C1100      C1142   1.616       .  S
C1100      C1185   1.463       .  S
O1101     Ni1309   1.814   1_545  S
O1101      C1111   1.237       .  A
O1102     Ni1109   1.814       .  S
O1102      C1112   1.237       .  A
O1103      C1113   1.237       .  A
O1104     Ni1509   1.815   1_545  S
O1104      C1114   1.237       .  A
O1105     Ni1510   2.085   1_545  S
O1105      C1114   1.307       .  A
O1106      C1113   1.307       .  A
O1107     Ni1110   2.085       .  S
O1107      C1112   1.307       .  A
O1108     Ni1310   2.085   1_545  S
O1108      C1111   1.307       .  A
Ni1109     O1301   1.814   1_556  S
Ni1109     O1504   1.814       .  S
Ni1109    Ni1110   2.191       .  S
Ni1110     O1505   2.085       .  S
Ni1110     O1308   2.085   1_556  S
O1115      C1125   1.237       .  A
O1116      C1126   1.237       .  A
O1117     Ni1123   1.814       .  S
O1117      C1127   1.237       .  A
O1118      C1128   1.237       .  A
O1119      C1128   1.307       .  A
O1120     Ni1124   2.085       .  S
O1120      C1127   1.307       .  A
O1121      C1126   1.307       .  A
O1122      C1125   1.307       .  A
Ni1123    Ni1124   2.191       .  S
O1129     Ni1537   1.815   1_545  S
O1129      C1139   1.237       .  A
O1130      C1140   1.237       .  A
O1131     Ni1137   1.814       .  S
O1131      C1141   1.237       .  A
O1132      C1142   1.237       .  A
O1133      C1142   1.307       .  A
O1134     Ni1138   2.085       .  S
O1134      C1141   1.307       .  A
O1135      C1140   1.307       .  A
O1136     Ni1538   2.085   1_545  S
O1136      C1139   1.307       .  A
Ni1137     O1529   1.815       .  S
Ni1137    Ni1138   2.191       .  S
Ni1138     O1536   2.085       .  S
O1143     Ni1351   2.085   1_545  S
O1143      C1153   1.307       .  A
O1144     Ni1151   2.085       .  S
O1144      C1154   1.307       .  A
O1145      C1155   1.307       .  A
O1146     Ni1551   2.085   1_545  S
O1146      C1156   1.307       .  A
O1147     Ni1552   1.814   1_545  S
O1147      C1156   1.237       .  A
O1148      C1155   1.237       .  A
O1149     Ni1152   1.814       .  S
O1149      C1154   1.237       .  A
O1150     Ni1352   1.815   1_545  S
O1150      C1153   1.237       .  A
Ni1151     O1343   2.085   1_556  S
Ni1151     O1546   2.085       .  S
Ni1151    Ni1152   2.191       .  S
Ni1152     O1547   1.814       .  S
Ni1152     O1350   1.814   1_556  S
O1157     Ni1165   2.085   1_645  S
O1157      C1167   1.307       .  A
O1158      C1168   1.307       .  A
O1159     Ni1565   2.085   1_655  S
O1159      C1169   1.307       .  A
O1160      C1170   1.307       .  A
O1161      C1170   1.237       .  A
O1162     Ni1166   1.814   1_655  S
O1162      C1169   1.237       .  A
O1163      C1168   1.237       .  A
O1164     Ni1566   1.815   1_645  S
O1164      C1167   1.237       .  A
Ni1165     O1559   2.085   1_455  S
Ni1165    Ni1566   2.191       .  S
Ni1166     O1564   1.814   1_455  S
Ni1166    Ni1565   2.191       .  S
O1171      C1181   1.237       .  A
O1172     Ni1179   1.814       .  S
O1172      C1182   1.237       .  A
O1173      C1183   1.237       .  A
O1174      C1184   1.237       .  A
O1175      C1184   1.307       .  A
O1176      C1183   1.307       .  A
O1177     Ni1180   2.085       .  S
O1177      C1182   1.307       .  A
O1178      C1181   1.307       .  A
Ni1179    Ni1180   2.191       .  S
C1185      C1186   1.205       .  T
C1187      C1188   1.206       .  T
C1189      C1190   1.206       .  T
C1191      C1192   1.205       .  T
C1193      C1194   1.205       .  T
C1195      C1196   1.206       .  T
C1197      C1198   1.206       .  T
C1199      C1200   1.205       .  T
O1201     Ni1209   2.085       .  S
O1201      C1211   1.307       .  A
O1202     Ni1209   2.085       .  S
O1202      C1212   1.307       .  A
O1203     Ni1209   2.085       .  S
O1203      C1213   1.307       .  A
O1204     Ni1209   2.084       .  S
O1204      C1214   1.307       .  A
O1205     Ni1210   1.814       .  S
O1205      C1214   1.237       .  A
O1206     Ni1210   1.814       .  S
O1206      C1213   1.237       .  A
O1207     Ni1210   1.815       .  S
O1207      C1212   1.237       .  A
O1208     Ni1210   1.815       .  S
O1208      C1211   1.237       .  A
Ni1209    Ni1210   2.191       .  S
C1211      C1285   1.617       .  S
C1212      C1293   1.617       .  S
C1213      C1287   1.616       .  S
C1214      C1289   1.616       .  S
O1215     Ni1223   2.085       .  S
O1215      C1225   1.307       .  A
O1216     Ni1223   2.085       .  S
O1216      C1226   1.307       .  A
O1217     Ni1223   2.085       .  S
O1217      C1227   1.307       .  A
O1218     Ni1223   2.085       .  S
O1218      C1228   1.307       .  A
O1219     Ni1224   1.814       .  S
O1219      C1228   1.237       .  A
O1220     Ni1224   1.814       .  S
O1220      C1227   1.237       .  A
O1221     Ni1224   1.814       .  S
O1221      C1226   1.237       .  A
O1222     Ni1224   1.815       .  S
O1222      C1225   1.237       .  A
Ni1223    Ni1224   2.191       .  S
C1225      C1291   1.617       .  S
C1226      C1287   1.616       .  S
C1227      C1297   1.616       .  S
C1228      C1285   1.616       .  S
O1229     Ni1237   1.815       .  S
O1229      C1239   1.237       .  A
O1230     Ni1237   1.814       .  S
O1230      C1240   1.237       .  A
O1231     Ni1237   1.815       .  S
O1231      C1241   1.237       .  A
O1232     Ni1237   1.814       .  S
O1232      C1242   1.237       .  A
O1233     Ni1238   2.085       .  S
O1233      C1242   1.307       .  A
O1234     Ni1238   2.085       .  S
O1234      C1241   1.307       .  A
O1235     Ni1238   2.085       .  S
O1235      C1240   1.307       .  A
O1236     Ni1238   2.085       .  S
O1236      C1239   1.307       .  A
Ni1237    Ni1238   2.191       .  S
C1239      C1285   1.617       .  S
C1240      C1295   1.616       .  S
C1241      C1291   1.617       .  S
C1242      C1289   1.616       .  S
O1243     Ni1251   1.814       .  S
O1243      C1253   1.237       .  A
O1244     Ni1251   1.814       .  S
O1244      C1254   1.237       .  A
O1245     Ni1251   1.814       .  S
O1245      C1255   1.237       .  A
O1246     Ni1251   1.814       .  S
O1246      C1256   1.237       .  A
O1247     Ni1252   2.085       .  S
O1247      C1256   1.307       .  A
O1248     Ni1252   2.085       .  S
O1248      C1255   1.307       .  A
O1249     Ni1252   2.085       .  S
O1249      C1254   1.307       .  A
O1250     Ni1252   2.085       .  S
O1250      C1253   1.307       .  A
Ni1251    Ni1252   2.191       .  S
C1253      C1295   1.616       .  S
C1254      C1293   1.616       .  S
C1255      C1299   1.616       .  S
C1256      C1289   1.616       .  S
O1257     Ni1265   2.085       .  S
O1257      C1267   1.307       .  A
O1258     Ni1265   2.085       .  S
O1258      C1268   1.307       .  A
O1259     Ni1265   2.085       .  S
O1259      C1269   1.307       .  A
O1260     Ni1265   2.085       .  S
O1260      C1270   1.307       .  A
O1261     Ni1266   1.814       .  S
O1261      C1270   1.237       .  A
O1262     Ni1266   1.815       .  S
O1262      C1269   1.237       .  A
O1263     Ni1266   1.815       .  S
O1263      C1268   1.237       .  A
O1264     Ni1266   1.815       .  S
O1264      C1267   1.237       .  A
Ni1265    Ni1266   2.191       .  S
C1267      C1299   1.616       .  S
C1268      C1287   1.617       .  S
C1269      C1293   1.616       .  S
C1270      C1297   1.616       .  S
O1271     Ni1279   1.815       .  S
O1271      C1281   1.237       .  A
O1272     Ni1279   1.815       .  S
O1272      C1282   1.237       .  A
O1273     Ni1279   1.814       .  S
O1273      C1283   1.237       .  A
O1274     Ni1279   1.814       .  S
O1274      C1284   1.237       .  A
O1275     Ni1280   2.085       .  S
O1275      C1284   1.307       .  A
O1276     Ni1280   2.085       .  S
O1276      C1283   1.307       .  A
O1277     Ni1280   2.085       .  S
O1277      C1282   1.307       .  A
O1278     Ni1280   2.085       .  S
O1278      C1281   1.307       .  A
Ni1279    Ni1280   2.191       .  S
C1281      C1299   1.616       .  S
C1282      C1291   1.616       .  S
C1283      C1295   1.616       .  S
C1284      C1297   1.616       .  S
C1285      C1400   1.464       .  S
C1286      C1354   1.616       .  S
C1286      C1369   1.617       .  S
C1286      C1382   1.617       .  S
C1286      C1399   1.464       .  S
C1287      C1397   1.464       .  S
C1288      C1326   1.616       .  S
C1288      C1356   1.616       .  S
C1288      C1367   1.616       .  S
C1288      C1398   1.464       .  S
C1289      C1396   1.463       .  S
C1290      C1312   1.616       .  S
C1290      C1368   1.616       .  S
C1290      C1384   1.616       .  S
C1290      C1395   1.463       .  S
C1291      C1393   1.464       .  S
C1292      C1341   1.617       .  S
C1292      C1355   1.617       .  S
C1292      C1383   1.617       .  S
C1292      C1394   1.464       .  S
C1293      C1391   1.464       .  S
C1294      C1314   1.616       .  S
C1294      C1327   1.616       .  S
C1294      C1370   1.616       .  S
C1294      C1392   1.464       .  S
C1295      C1390   1.463       .  S
C1296      C1313   1.616       .  S
C1296      C1340   1.616       .  S
C1296      C1381   1.616       .  S
C1296      C1389   1.463       .  S
C1297      C1387   1.463       .  S
C1298      C1328   1.616       .  S
C1298      C1339   1.616       .  S
C1298      C1353   1.616       .  S
C1298      C1388   1.463       .  S
C1299      C1386   1.464       .  S
C1300      C1311   1.616       .  S
C1300      C1325   1.616       .  S
C1300      C1342   1.616       .  S
C1300      C1385   1.464       .  S
O1301      C1311   1.237       .  A
O1302     Ni1309   1.814       .  S
O1302      C1312   1.237       .  A
O1303     Ni1509   1.814   1_554  S
O1303      C1313   1.237       .  A
O1304      C1314   1.237       .  A
O1305      C1314   1.307       .  A
O1306     Ni1510   2.085   1_554  S
O1306      C1313   1.307       .  A
O1307     Ni1310   2.085       .  S
O1307      C1312   1.307       .  A
O1308      C1311   1.307       .  A
Ni1309     O1503   1.814       .  S
Ni1309    Ni1310   2.191       .  S
Ni1310     O1506   2.085       .  S
O1315     Ni1523   1.815   1_554  S
O1315      C1325   1.237       .  A
O1316      C1326   1.237       .  A
O1317     Ni1323   1.814       .  S
O1317      C1327   1.237       .  A
O1318      C1328   1.237       .  A
O1319      C1328   1.307       .  A
O1320     Ni1324   2.085       .  S
O1320      C1327   1.307       .  A
O1321      C1326   1.307       .  A
O1322     Ni1524   2.085   1_554  S
O1322      C1325   1.307       .  A
Ni1323     O1515   1.815       .  S
Ni1323    Ni1324   2.191       .  S
Ni1324     O1522   2.085       .  S
O1329      C1339   1.237       .  A
O1330      C1340   1.237       .  A
O1331     Ni1337   1.814       .  S
O1331      C1341   1.237       .  A
O1332      C1342   1.237       .  A
O1333      C1342   1.307       .  A
O1334     Ni1338   2.085       .  S
O1334      C1341   1.307       .  A
O1335      C1340   1.307       .  A
O1336      C1339   1.307       .  A
Ni1337    Ni1338   2.191       .  S
O1343      C1353   1.307       .  A
O1344     Ni1351   2.085       .  S
O1344      C1354   1.307       .  A
O1345     Ni1551   2.085   1_554  S
O1345      C1355   1.307       .  A
O1346      C1356   1.307       .  A
O1347      C1356   1.237       .  A
O1348     Ni1552   1.815   1_554  S
O1348      C1355   1.237       .  A
O1349     Ni1352   1.814       .  S
O1349      C1354   1.237       .  A
O1350      C1353   1.237       .  A
Ni1351     O1545   2.085       .  S
Ni1351    Ni1352   2.191       .  S
Ni1352     O1548   1.815       .  S
O1357     Ni1365   2.085   1_655  S
O1357      C1367   1.307       .  A
O1358      C1368   1.307       .  A
O1359      C1369   1.307       .  A
O1360      C1370   1.307       .  A
O1361      C1370   1.237       .  A
O1362     Ni1366   1.815   1_655  S
O1362      C1369   1.237       .  A
O1363      C1368   1.237       .  A
O1364      C1367   1.237       .  A
O1371      C1381   1.237       .  A
O1372     Ni1379   1.815   1_655  S
O1372      C1382   1.237       .  A
O1373     Ni1579   1.815   1_654  S
O1373      C1383   1.237       .  A
O1374      C1384   1.237       .  A
O1375      C1384   1.307       .  A
O1376     Ni1580   2.085   1_654  S
O1376      C1383   1.307       .  A
O1377     Ni1380   2.085   1_655  S
O1377      C1382   1.307       .  A
O1378      C1381   1.307       .  A
Ni1379     O1573   1.815   1_455  S
Ni1379    Ni1380   2.191       .  S
Ni1380     O1576   2.085   1_455  S
C1385      C1386   1.206       .  T
C1387      C1388   1.205       .  T
C1389      C1390   1.205       .  T
C1391      C1392   1.206       .  T
C1393      C1394   1.206       .  T
C1395      C1396   1.205       .  T
C1397      C1398   1.206       .  T
C1399      C1400   1.206       .  T
O1401     Ni1409   2.085       .  S
O1401      C1411   1.307       .  A
O1402     Ni1409   2.085       .  S
O1402      C1412   1.307       .  A
O1403     Ni1409   2.085       .  S
O1403      C1413   1.307       .  A
O1404     Ni1409   2.084       .  S
O1404      C1414   1.307       .  A
O1405     Ni1410   1.814       .  S
O1405      C1414   1.237       .  A
O1406     Ni1410   1.814       .  S
O1406      C1413   1.237       .  A
O1407     Ni1410   1.815       .  S
O1407      C1412   1.237       .  A
O1408     Ni1410   1.815       .  S
O1408      C1411   1.237       .  A
Ni1409    Ni1410   2.191       .  S
C1411      C1485   1.617       .  S
C1412      C1493   1.617       .  S
C1413      C1487   1.616       .  S
C1414      C1489   1.616       .  S
O1415     Ni1423   2.085       .  S
O1415      C1425   1.307       .  A
O1416     Ni1423   2.085       .  S
O1416      C1426   1.307       .  A
O1417     Ni1423   2.085       .  S
O1417      C1427   1.307       .  A
O1418     Ni1423   2.085       .  S
O1418      C1428   1.307       .  A
O1419     Ni1424   1.814       .  S
O1419      C1428   1.237       .  A
O1420     Ni1424   1.814       .  S
O1420      C1427   1.237       .  A
O1421     Ni1424   1.814       .  S
O1421      C1426   1.237       .  A
O1422     Ni1424   1.815       .  S
O1422      C1425   1.237       .  A
Ni1423    Ni1424   2.191       .  S
C1425      C1491   1.617       .  S
C1426      C1487   1.616       .  S
C1427      C1497   1.616       .  S
C1428      C1485   1.616       .  S
O1429     Ni1437   1.815       .  S
O1429      C1439   1.237       .  A
O1430     Ni1437   1.814       .  S
O1430      C1440   1.237       .  A
O1431     Ni1437   1.815       .  S
O1431      C1441   1.237       .  A
O1432     Ni1437   1.814       .  S
O1432      C1442   1.237       .  A
O1433     Ni1438   2.085       .  S
O1433      C1442   1.307       .  A
O1434     Ni1438   2.085       .  S
O1434      C1441   1.307       .  A
O1435     Ni1438   2.085       .  S
O1435      C1440   1.307       .  A
O1436     Ni1438   2.085       .  S
O1436      C1439   1.307       .  A
Ni1437    Ni1438   2.191       .  S
C1439      C1485   1.617       .  S
C1440      C1495   1.616       .  S
C1441      C1491   1.617       .  S
C1442      C1489   1.616       .  S
O1443     Ni1451   1.814       .  S
O1443      C1453   1.237       .  A
O1444     Ni1451   1.814       .  S
O1444      C1454   1.237       .  A
O1445     Ni1451   1.814       .  S
O1445      C1455   1.237       .  A
O1446     Ni1451   1.814       .  S
O1446      C1456   1.237       .  A
O1447     Ni1452   2.085       .  S
O1447      C1456   1.307       .  A
O1448     Ni1452   2.085       .  S
O1448      C1455   1.307       .  A
O1449     Ni1452   2.085       .  S
O1449      C1454   1.307       .  A
O1450     Ni1452   2.085       .  S
O1450      C1453   1.307       .  A
Ni1451    Ni1452   2.191       .  S
C1453      C1495   1.616       .  S
C1454      C1493   1.616       .  S
C1455      C1499   1.616       .  S
C1456      C1489   1.616       .  S
O1457     Ni1465   2.085       .  S
O1457      C1467   1.307       .  A
O1458     Ni1465   2.085       .  S
O1458      C1468   1.307       .  A
O1459     Ni1465   2.085       .  S
O1459      C1469   1.307       .  A
O1460     Ni1465   2.085       .  S
O1460      C1470   1.307       .  A
O1461     Ni1466   1.814       .  S
O1461      C1470   1.237       .  A
O1462     Ni1466   1.815       .  S
O1462      C1469   1.237       .  A
O1463     Ni1466   1.815       .  S
O1463      C1468   1.237       .  A
O1464     Ni1466   1.815       .  S
O1464      C1467   1.237       .  A
Ni1465    Ni1466   2.191       .  S
C1467      C1499   1.616       .  S
C1468      C1487   1.617       .  S
C1469      C1493   1.616       .  S
C1470      C1497   1.616       .  S
O1471     Ni1479   1.815       .  S
O1471      C1481   1.237       .  A
O1472     Ni1479   1.815       .  S
O1472      C1482   1.237       .  A
O1473     Ni1479   1.814       .  S
O1473      C1483   1.237       .  A
O1474     Ni1479   1.814       .  S
O1474      C1484   1.237       .  A
O1475     Ni1480   2.085       .  S
O1475      C1484   1.307       .  A
O1476     Ni1480   2.085       .  S
O1476      C1483   1.307       .  A
O1477     Ni1480   2.085       .  S
O1477      C1482   1.307       .  A
O1478     Ni1480   2.085       .  S
O1478      C1481   1.307       .  A
Ni1479    Ni1480   2.191       .  S
C1481      C1499   1.616       .  S
C1482      C1491   1.616       .  S
C1483      C1495   1.616       .  S
C1484      C1497   1.616       .  S
C1485      C1600   1.464       .  S
C1486      C1554   1.616       .  S
C1486      C1569   1.617       .  S
C1486      C1582   1.617       .  S
C1486      C1599   1.464       .  S
C1487      C1597   1.464       .  S
C1488      C1526   1.616       .  S
C1488      C1556   1.616       .  S
C1488      C1567   1.616       .  S
C1488      C1598   1.464       .  S
C1489      C1596   1.463       .  S
C1490      C1512   1.616       .  S
C1490      C1568   1.616       .  S
C1490      C1584   1.616       .  S
C1490      C1595   1.463       .  S
C1491      C1593   1.464       .  S
C1492      C1541   1.617       .  S
C1492      C1555   1.617       .  S
C1492      C1583   1.617       .  S
C1492      C1594   1.464       .  S
C1493      C1591   1.464       .  S
C1494      C1514   1.616       .  S
C1494      C1527   1.616       .  S
C1494      C1570   1.616       .  S
C1494      C1592   1.464       .  S
C1495      C1590   1.463       .  S
C1496      C1513   1.616       .  S
C1496      C1540   1.616       .  S
C1496      C1581   1.616       .  S
C1496      C1589   1.463       .  S
C1497      C1587   1.463       .  S
C1498      C1528   1.616       .  S
C1498      C1539   1.616       .  S
C1498      C1553   1.616       .  S
C1498      C1588   1.463       .  S
C1499      C1586   1.464       .  S
C1500      C1511   1.616       .  S
C1500      C1525   1.616       .  S
C1500      C1542   1.616       .  S
C1500      C1585   1.464       .  S
O1501      C1511   1.237       .  A
O1502     Ni1509   1.814       .  S
O1502      C1512   1.237       .  A
O1503      C1513   1.237       .  A
O1504      C1514   1.237       .  A
O1505      C1514   1.307       .  A
O1506      C1513   1.307       .  A
O1507     Ni1510   2.085       .  S
O1507      C1512   1.307       .  A
O1508      C1511   1.307       .  A
Ni1509    Ni1510   2.191       .  S
O1515      C1525   1.237       .  A
O1516      C1526   1.237       .  A
O1517     Ni1523   1.814       .  S
O1517      C1527   1.237       .  A
O1518      C1528   1.237       .  A
O1519      C1528   1.307       .  A
O1520     Ni1524   2.085       .  S
O1520      C1527   1.307       .  A
O1521      C1526   1.307       .  A
O1522      C1525   1.307       .  A
Ni1523    Ni1524   2.191       .  S
O1529      C1539   1.237       .  A
O1530      C1540   1.237       .  A
O1531     Ni1537   1.814       .  S
O1531      C1541   1.237       .  A
O1532      C1542   1.237       .  A
O1533      C1542   1.307       .  A
O1534     Ni1538   2.085       .  S
O1534      C1541   1.307       .  A
O1535      C1540   1.307       .  A
O1536      C1539   1.307       .  A
Ni1537    Ni1538   2.191       .  S
O1543      C1553   1.307       .  A
O1544     Ni1551   2.085       .  S
O1544      C1554   1.307       .  A
O1545      C1555   1.307       .  A
O1546      C1556   1.307       .  A
O1547      C1556   1.237       .  A
O1548      C1555   1.237       .  A
O1549     Ni1552   1.814       .  S
O1549      C1554   1.237       .  A
O1550      C1553   1.237       .  A
Ni1551    Ni1552   2.191       .  S
O1557     Ni1565   2.085   1_655  S
O1557      C1567   1.307       .  A
O1558      C1568   1.307       .  A
O1559      C1569   1.307       .  A
O1560      C1570   1.307       .  A
O1561      C1570   1.237       .  A
O1562     Ni1566   1.815   1_655  S
O1562      C1569   1.237       .  A
O1563      C1568   1.237       .  A
O1564      C1567   1.237       .  A
O1571      C1581   1.237       .  A
O1572     Ni1579   1.815   1_655  S
O1572      C1582   1.237       .  A
O1573      C1583   1.237       .  A
O1574      C1584   1.237       .  A
O1575      C1584   1.307       .  A
O1576      C1583   1.307       .  A
O1577     Ni1580   2.085   1_655  S
O1577      C1582   1.307       .  A
O1578      C1581   1.307       .  A
Ni1579    Ni1580   2.191       .  S
C1585      C1586   1.206       .  T
C1587      C1588   1.205       .  T
C1589      C1590   1.205       .  T
C1591      C1592   1.206       .  T
C1593      C1594   1.206       .  T
C1595      C1596   1.205       .  T
C1597      C1598   1.206       .  T
C1599      C1600   1.206       .  T
