geometry optimzed in LAMMPS
_audit_creation_date              2020-12-01 
_audit_creation_method            'lammps2cif' 
_symmetry_space_group_name_H-M    'P1' 
_symmetry_Int_Tables_number       1 
_symmetry_cell_setting            triclinic 
loop_ 
_symmetry_equiv_pos_as_xyz 
  x,y,z 
_cell_length_a                    43.05099827 
_cell_length_b                    43.21118110301182 
_cell_length_c                    39.94663758122371 
_cell_angle_alpha                 90.34691531037612 
_cell_angle_beta                  87.6547265853216 
_cell_angle_gamma                 89.0197765307787 
loop_ 
_atom_site_label 
_atom_site_type_symbol 
_atom_site_fract_x 
_atom_site_fract_y 
_atom_site_fract_z 
_atom_site_charge 
O1          O  0.46910444  0.45495804  0.46888672    -0.81200
O2          O  0.03982573  0.06937719  0.48786418    -0.81200
O3          O  0.46730380  0.02836953  0.45498516    -0.81200
O4          O  0.03599591  0.47326012  0.44635404    -0.81200
O5          O  0.47514049  0.06700373  0.49020049    -0.81300
O6          O  0.02687567  0.43628486  0.48163937    -0.81200
O7          O  0.04445137  0.03464761  0.44769366    -0.81200
O8          O  0.42701239  0.48541455  0.47333016    -0.81200
C9          C  0.44052975  0.46118226  0.46178468     1.08500
C10         C  0.04850058  0.06181749  0.45801981     1.08400
C11         C  0.46511566  0.05696338  0.46255230     1.08500
C12         C  0.03801238  0.44500353  0.45357281     1.08400
O13         O  0.02555271  0.46431710  0.04581676    -0.81200
O14         O  0.47526699  0.03852820  0.05295466    -0.81300
O15         O  0.45114511  0.47044634  0.03427195    -0.81200
O16         O  0.07459920  0.03048727  0.00853101    -0.81200
O17         O  0.03948729  0.03719591  0.04952009    -0.81200
O18         O  0.47628584  0.42559119  0.02650652    -0.81200
O19         O  0.06559761  0.46937143  0.00997988    -0.81100
O20         O  0.43965464  0.03318074  0.01665116    -0.81200
Co21       Co  0.99673963  0.46483151  0.00864568     1.51500
Co22       Co  0.50684903  0.04891020  0.52100767     1.51700
Co23       Co  0.46434099  0.49985723  0.49052500     1.51600
Co24       Co  0.05211028  0.00244539  0.97681914     1.51500
O25         O  0.00727441  0.50693086  0.50097279    -1.43100
C26         C  0.05409225  0.45944946  0.03776005     1.08400
C27         C  0.44733907  0.04186776  0.04533048     1.08500
C28         C  0.45396653  0.44111183  0.04045423     1.08500
C29         C  0.06729912  0.03854952  0.03861363     1.08400
C30         C  0.13504127  0.13850539  0.37902876     0.85400
C31         C  0.16932542  0.12966141  0.38459313    -0.54800
C32         C  0.19043503  0.14471070  0.36435239     0.08400
C33         C  0.17509760  0.16784985  0.34049838     0.19300
C34         C  0.13394014  0.17411786  0.38365788    -0.55500
C35         C  0.15537232  0.18947064  0.36402956     0.08500
C36         C  0.13046825  0.13416715  0.34138069    -0.55000
C37         C  0.15103861  0.14942967  0.32115925     0.09000
H38         H  0.17623783  0.11321152  0.40345977     0.13600
H39         H  0.19217456  0.18013170  0.32414176    -0.00700
H40         H  0.11699526  0.18681133  0.39919421     0.13900
H41         H  0.11185235  0.12062788  0.33145758     0.13700
C42         C  0.12658048  0.37500551  0.36607595     0.85400
C43         C  0.12445027  0.33965992  0.36974214    -0.54800
C44         C  0.14581610  0.32297415  0.35050255     0.08400
C45         C  0.16715099  0.34335989  0.32856803     0.19300
C46         C  0.16093419  0.38230393  0.37255752    -0.55500
C47         C  0.18235427  0.36552527  0.35309779     0.08500
C48         C  0.12415060  0.38039892  0.32805582    -0.55000
C49         C  0.14508803  0.36392094  0.30864315     0.09000
H50         H  0.10763504  0.32879985  0.38672547     0.13600
H51         H  0.18419703  0.32955657  0.31328393    -0.00700
H52         H  0.16762598  0.39893993  0.39129555     0.13900
H53         H  0.10750197  0.39511654  0.31606559     0.13700
C54         C  0.12787928  0.36741107  0.10937228     0.85400
C55         C  0.16394399  0.36930772  0.10686153    -0.54800
C56         C  0.17911970  0.34846839  0.12636730     0.08400
C57         C  0.15697484  0.32709467  0.14614704     0.19300
C58         C  0.12166766  0.33335712  0.10031325    -0.55500
C59         C  0.13689672  0.31227529  0.11937469     0.08500
C60         C  0.12019828  0.37038863  0.14707433    -0.55000
C61         C  0.13512550  0.34948333  0.16621114     0.09000
H62         H  0.17718958  0.38542836  0.09172533     0.13600
H63         H  0.16886901  0.31023437  0.16235967    -0.00700
H64         H  0.10644051  0.32649891  0.08067254     0.13900
H65         H  0.10557124  0.38888863  0.15797939     0.13700
C66         C  0.13545663  0.12385759  0.12050649     0.85400
C67         C  0.12431640  0.15691387  0.11214954    -0.54800
C68         C  0.13869920  0.17967884  0.12911820     0.08400
C69         C  0.16277101  0.16757034  0.15353162     0.19300
C70         C  0.17100499  0.12405857  0.11516355    -0.55500
C71         C  0.18533939  0.14689314  0.13222694     0.08500
C72         C  0.13059117  0.12207907  0.15923352    -0.55000
C73         C  0.14540287  0.14461204  0.17631035     0.09000
H74         H  0.10691992  0.16193387  0.09391599     0.13600
H75         H  0.17442570  0.18616975  0.16738280    -0.00700
H76         H  0.18384070  0.10626963  0.10080062     0.13900
H77         H  0.11758310  0.10472187  0.17286413     0.13700
C78         C  0.37943948  0.13299539  0.38558855     0.85400
C79         C  0.38437668  0.16784664  0.39116802    -0.54800
C80         C  0.36450405  0.18662087  0.37462373     0.08400
C81         C  0.34160726  0.16912409  0.35348431     0.19300
C82         C  0.34439525  0.12787729  0.39443861    -0.55500
C83         C  0.32464587  0.14688662  0.37739068     0.08500
C84         C  0.38184373  0.12943506  0.34700357    -0.55000
C85         C  0.36177905  0.14798720  0.33064629     0.09000
H86         H  0.40185241  0.17687446  0.40727247     0.13600
H87         H  0.32577593  0.18454314  0.33960318    -0.00700
H88         H  0.33613374  0.10971552  0.41102631     0.13900
H89         H  0.39759630  0.11433218  0.33265792     0.13700
C90         C  0.37188881  0.12641492  0.13086564     0.85400
C91         C  0.33704994  0.11960327  0.12967992    -0.54800
C92         C  0.31816110  0.13951000  0.14793483     0.08400
C93         C  0.33590777  0.16429357  0.16676183     0.19300
C94         C  0.37481221  0.16093039  0.12092829    -0.55500
C95         C  0.35553704  0.18076532  0.13946611     0.08500
C96         C  0.37832961  0.12672098  0.16856950    -0.55000
C97         C  0.35950623  0.14637767  0.18706122     0.09000
H98         H  0.32796359  0.10114846  0.11450285     0.13600
H99         H  0.32093804  0.18003098  0.18266047    -0.00700
H100        H  0.39079888  0.16886295  0.10121146     0.13900
H101        H  0.39607450  0.11344346  0.18069492     0.13700
C102        C  0.36705594  0.36966811  0.12574703     0.85400
C103        C  0.37303067  0.33456041  0.12051879    -0.54800
C104        C  0.35498305  0.31591517  0.14070148     0.08400
C105        C  0.33104835  0.33450188  0.16305760     0.17400
C106        C  0.33187533  0.37354141  0.11946540    -0.55500
C107        C  0.31309258  0.35539833  0.13907214     0.08500
C108        C  0.36933560  0.37511389  0.16365349    -0.55000
C109        C  0.35055000  0.35682363  0.18316784     0.09000
H110        H  0.38973129  0.32547427  0.10174242     0.13600
H111        H  0.31566491  0.32014749  0.17936215    -0.00700
H112        H  0.32192866  0.38789991  0.10046335     0.13900
H113        H  0.38511359  0.39157668  0.17413990     0.13700
C114        C  0.36884239  0.37456252  0.38339547     0.85400
C115        C  0.33344161  0.37994540  0.38888952    -0.54800
C116        C  0.31576496  0.35959619  0.37195901     0.08400
C117        C  0.33495274  0.33559106  0.35107849     0.19300
C118        C  0.37480811  0.34026045  0.39206394    -0.55500
C119        C  0.35650597  0.32000927  0.37581710     0.08500
C120        C  0.37411683  0.37498234  0.34475325    -0.55000
C121        C  0.35629712  0.35473544  0.32796888     0.09000
H122        H  0.32339020  0.39917106  0.40349426     0.13600
H123        H  0.32055061  0.31913935  0.33725446    -0.00700
H124        H  0.39209271  0.33263571  0.40941247     0.13900
H125        H  0.39038537  0.38934265  0.33093962     0.13700
C126        C  0.35511023  0.35442365  0.29079970    -0.07200
C127        C  0.35057897  0.38275943  0.27455734    -0.18300
C128        C  0.34803499  0.38428552  0.23982774     0.10000
C129        C  0.35054389  0.35683479  0.22036683    -0.07100
C130        C  0.35441402  0.32840012  0.23663743    -0.18300
C131        C  0.35702094  0.32691950  0.27143179     0.10100
S132        S  0.34020117  0.42185360  0.22240961    -0.33300
S133        S  0.36494434  0.28956709  0.28913882    -0.33300
H134        H  0.38705104  0.30099453  0.31076782     0.28100
H135        H  0.32293077  0.41071649  0.19607666     0.28100
H136        H  0.34821287  0.40392520  0.28921275     0.18700
H137        H  0.35668568  0.30722741  0.22197475     0.18700
C138        C  0.35665244  0.28108412  0.13994804    -0.07200
C139        C  0.32874808  0.26501759  0.14364448    -0.18300
C140        C  0.32749495  0.23289375  0.14046769     0.10000
C141        C  0.35528152  0.21523287  0.13630909    -0.07100
C142        C  0.38362190  0.23090349  0.13381241    -0.18300
C143        C  0.38470617  0.26347380  0.13587010     0.10100
S144        S  0.28963797  0.21578155  0.13882739    -0.33300
S145        S  0.42215800  0.28144951  0.13726414    -0.33300
H146        H  0.44038721  0.25414276  0.13764559     0.28100
H147        H  0.27325617  0.23915966  0.15718263     0.28100
H148        H  0.30741966  0.27742095  0.14881472     0.18700
H149        H  0.40505879  0.21745914  0.13185681     0.18700
C150        C  0.35949235  0.14737279  0.29406451    -0.07200
C151        C  0.36321081  0.17516916  0.27662716    -0.18300
C152        C  0.36402556  0.17555841  0.24167085     0.10000
C153        C  0.36023956  0.14769142  0.22384664    -0.07100
C154        C  0.35605852  0.11999542  0.24138722    -0.18300
C155        C  0.35515672  0.11955786  0.27624495     0.10100
S156        S  0.37225967  0.21173073  0.22139259    -0.33300
S157        S  0.34727630  0.08299749  0.29622227    -0.33300
H158        H  0.33137627  0.09551070  0.32472183     0.28100
H159        H  0.39234498  0.19824471  0.19654977     0.28100
H160        H  0.36682467  0.19647677  0.29029718     0.18700
H161        H  0.35262382  0.09862738  0.22776460     0.18700
C162        C  0.36387137  0.22079595  0.37736218    -0.07200
C163        C  0.33507365  0.23551175  0.38431924    -0.18300
C164        C  0.33218302  0.26780088  0.38523050     0.10000
C165        C  0.35882163  0.28592061  0.37943354    -0.07100
C166        C  0.38789520  0.27119296  0.37371681    -0.18300
C167        C  0.39064376  0.23880716  0.37193831     0.10100
S168        S  0.29450866  0.28533434  0.39501590    -0.33300
S169        S  0.42767735  0.22104214  0.35952774    -0.33300
H170        H  0.44517387  0.24823163  0.35971103     0.28100
H171        H  0.27704365  0.25829583  0.39212613     0.28100
H172        H  0.31473032  0.22152999  0.38901805     0.18700
H173        H  0.40814119  0.28519843  0.36864115     0.18700
C174        C  0.21953133  0.14727508  0.13536070    -0.07200
C175        C  0.23121644  0.14794885  0.16767491    -0.18300
C176        C  0.26298107  0.14398622  0.17271763     0.10000
C177        C  0.28393132  0.14018034  0.14483421    -0.07100
C178        C  0.27227747  0.14005274  0.11247561    -0.18300
C179        C  0.24052689  0.14391335  0.10742728     0.10100
S180        S  0.27499261  0.14212318  0.21530337    -0.33300
S181        S  0.22863170  0.14600790  0.06472524    -0.33300
H182        H  0.20321668  0.16625659  0.07155564     0.28100
H183        H  0.29787445  0.11910787  0.20851457     0.28100
H184        H  0.21536679  0.15011574  0.18935909     0.18700
H185        H  0.28820212  0.13820550  0.09080114     0.18700
C186        C  0.13309880  0.27822319  0.11636227    -0.07200
C187        C  0.11382982  0.26381154  0.14043188    -0.18300
C188        C  0.11304599  0.23157843  0.14328308     0.10000
C189        C  0.13340398  0.21310024  0.12275814    -0.07100
C190        C  0.15070538  0.22719470  0.09668123    -0.18300
C191        C  0.14990294  0.25946385  0.09242438     0.10100
S192        S  0.08527441  0.21581866  0.17326785    -0.33300
S193        S  0.17114924  0.27448654  0.05625695    -0.33300
H194        H  0.16053722  0.30523651  0.05825049     0.28100
H195        H  0.08378880  0.18624097  0.15875991     0.28100
H196        H  0.09912043  0.27782210  0.15708841     0.18700
H197        H  0.16528222  0.21297252  0.07978317     0.18700
C198        C  0.21341829  0.34951473  0.13056658    -0.07200
C199        C  0.22687012  0.37821888  0.13739983    -0.18300
C200        C  0.25914448  0.38095776  0.14059493     0.10000
C201        C  0.27868286  0.35456836  0.13593469    -0.07100
C202        C  0.26529806  0.32639790  0.12778904    -0.18300
C203        C  0.23304312  0.32314090  0.12670363     0.10100
S204        S  0.27492530  0.41813644  0.15065623    -0.33300
S205        S  0.21787770  0.28510753  0.12016390    -0.33300
H206        H  0.24638515  0.26966623  0.11296795     0.28100
H207        H  0.24648055  0.43463963  0.15342982     0.28100
H208        H  0.21189205  0.39847701  0.14068549     0.18700
H209        H  0.28020144  0.30710540  0.12102292     0.18700
C210        C  0.14211976  0.36219319  0.27203579    -0.07200
C211        C  0.12069150  0.34126619  0.25994164    -0.18300
C212        C  0.11700459  0.33737323  0.22564676     0.10000
C213        C  0.13615892  0.35379112  0.20278282    -0.07100
C214        C  0.15591710  0.37642984  0.21485390    -0.18300
C215        C  0.15788075  0.38193581  0.24925712     0.10100
S216        S  0.08672197  0.31216422  0.21312043    -0.33300
S217        S  0.17838814  0.41600528  0.26167549    -0.33300
H218        H  0.16839509  0.41688409  0.29552599     0.28100
H219        H  0.08031850  0.32786759  0.18340658     0.28100
H220        H  0.10649753  0.32798986  0.27749828     0.18700
H221        H  0.16907508  0.39062498  0.19725860     0.18700
C222        C  0.28157224  0.36275709  0.36884332    -0.07200
C223        C  0.27068286  0.36240214  0.33637320    -0.18300
C224        C  0.23897515  0.36377433  0.33026120     0.10000
C225        C  0.21683162  0.36622054  0.35754762    -0.07100
C226        C  0.22790501  0.36728689  0.39029224    -0.18300
C227        C  0.25984730  0.36521788  0.39625505     0.10100
S228        S  0.22842718  0.36379948  0.28704291    -0.33300
S229        S  0.27098906  0.36426648  0.43928412    -0.33300
H230        H  0.29770736  0.34550609  0.43380605     0.28100
H231        H  0.25734297  0.35411511  0.27256265     0.28100
H232        H  0.28739341  0.36132938  0.31538736     0.18700
H233        H  0.21150009  0.36838488  0.41158353     0.18700
C234        C  0.14891368  0.14861621  0.28412784    -0.07200
C235        C  0.16046966  0.12236839  0.26661463    -0.18300
C236        C  0.15992729  0.12038521  0.23162160     0.10000
C237        C  0.14715628  0.14520302  0.21339680    -0.07100
C238        C  0.13494110  0.17105802  0.23101761    -0.18300
C239        C  0.13409619  0.17231183  0.26607155     0.10100
S240        S  0.17634602  0.08569233  0.21216061    -0.33300
S241        S  0.11057813  0.20283474  0.28561925    -0.33300
H242        H  0.10353308  0.18746219  0.31574403     0.28100
H243        H  0.18679591  0.09940586  0.18216240     0.28100
H244        H  0.16981510  0.10305642  0.28032492     0.18700
H245        H  0.12464244  0.18985560  0.21747738     0.18700
C246        C  0.22490957  0.14185992  0.36798787    -0.07200
C247        C  0.23726663  0.14282486  0.40015201    -0.18300
C248        C  0.26957869  0.14379224  0.40445105     0.10000
C249        C  0.29026087  0.14345591  0.37602863    -0.07100
C250        C  0.27784588  0.14146052  0.34414384    -0.18300
C251        C  0.24587241  0.14024894  0.33989490     0.10100
S252        S  0.28269796  0.14733150  0.44653783    -0.33300
S253        S  0.23351771  0.13427888  0.29802590    -0.33300
H254        H  0.21356431  0.11055305  0.30851557     0.28100
H255        H  0.30763888  0.16684018  0.43828517     0.28100
H256        H  0.22163948  0.14424423  0.42208468     0.18700
H257        H  0.29329013  0.14043753  0.32204942     0.18700
C258        C  0.15673644  0.22389307  0.36236385    -0.07200
C259        C  0.16133758  0.23725423  0.33077865    -0.18300
C260        C  0.15733048  0.26898695  0.32572195     0.10000
C261        C  0.14989880  0.28869420  0.35349426    -0.07100
C262        C  0.14765050  0.27555330  0.38565884    -0.18300
C263        C  0.15136929  0.24364323  0.39045937     0.10100
S264        S  0.15893267  0.28236130  0.28300008    -0.33300
S265        S  0.15126109  0.23019554  0.43313283    -0.33300
H266        H  0.17216824  0.20531183  0.42651807     0.28100
H267        H  0.17248130  0.25563591  0.26787129     0.28100
H268        H  0.16635078  0.22254546  0.30927367     0.18700
H269        H  0.14369050  0.29035902  0.40746059     0.18700
C270        C  0.11196177  0.11898846  0.39996985    -0.07200
C271        C  0.09025614  0.13264180  0.42341853    -0.18300
C272        C  0.06818401  0.11507452  0.44127706     0.10000
C273        C  0.06788902  0.08270084  0.43681778    -0.07100
C274        C  0.08928296  0.06895499  0.41351429    -0.18300
C275        C  0.11118401  0.08635338  0.39531245     0.10100
S276        S  0.04044219  0.13563009  0.46857755    -0.33300
S277        S  0.13829249  0.06594160  0.36665312    -0.33300
H278        H  0.12607792  0.03613847  0.37047731     0.28100
H279        H  0.01303471  0.11803755  0.95733639     0.28100
H280        H  0.08965022  0.15713937  0.42827097     0.18700
H281        H  0.08959007  0.04407258  0.41028325     0.18700
C282        C  0.07316848  0.43820934  0.05801389    -0.07200
C283        C  0.05845961  0.41391159  0.07510891    -0.18300
C284        C  0.07552267  0.39076236  0.09120648     0.10000
C285        C  0.10863894  0.39139327  0.09009559    -0.07100
C286        C  0.12304884  0.41640399  0.07337697    -0.18300
C287        C  0.10587722  0.43973301  0.05783399     0.10100
S288        S  0.05419132  0.36095632  0.11352117    -0.33300
S289        S  0.12620601  0.47206451  0.03909830    -0.33300
H290        H  0.15575619  0.46516671  0.05114784     0.28100
H291        H  0.02428504  0.36984324  0.10400768     0.28100
H292        H  0.03336120  0.41271888  0.07525224     0.18700
H293        H  0.14780439  0.41875316  0.07270611     0.18700
C294        C  0.39111449  0.10337930  0.10854135    -0.07200
C295        C  0.41101898  0.08094788  0.12256983    -0.18300
C296        C  0.42765197  0.05907306  0.10282312     0.10000
C297        C  0.42532152  0.05942198  0.06783766    -0.07100
C298        C  0.40406602  0.07995849  0.05372834    -0.18300
C299        C  0.38698905  0.10175641  0.07344780     0.10100
S300        S  0.45046264  0.03034217  0.12400539    -0.33300
S301        S  0.36006234  0.12716189  0.05288218    -0.33300
H302        H  0.35627503  0.10784985  0.02492104     0.28100
H303        H  0.44583847  0.00647570  0.10067364     0.28100
H304        H  0.41345628  0.07897437  0.14910616     0.18700
H305        H  0.40155625  0.07969450  0.02692302     0.18700
C306        C  0.08973294  0.05481465  0.05924375    -0.07200
C307        C  0.10770210  0.07793394  0.04403719    -0.18300
C308        C  0.12313504  0.09982429  0.06316241     0.10000
C309        C  0.12072837  0.09875535  0.09885580    -0.07100
C310        C  0.10462816  0.07371976  0.11360531    -0.18300
C311        C  0.08937867  0.05197406  0.09436053     0.10100
S312        S  0.14503524  0.12936271  0.04109516    -0.33300
S313        S  0.06971300  0.02106862  0.11626378    -0.33300
H314        H  0.07227072  0.99972194  0.08961947     0.28100
H315        H  0.13409111  0.12364427  0.00896911     0.28100
H316        H  0.10818200  0.07991590  0.01700861     0.18700
H317        H  0.10345309  0.07036539  0.14025827     0.18700
C318        C  0.38778151  0.39748942  0.40387348    -0.07200
C319        C  0.40476550  0.42146143  0.38798307    -0.18300
C320        C  0.42227367  0.44240906  0.40593894     0.10000
C321        C  0.42342918  0.43965792  0.44091763    -0.07100
C322        C  0.40604323  0.41675441  0.45724656    -0.18300
C323        C  0.38760461  0.39633317  0.43949748     0.10100
S324        S  0.44121292  0.47283408  0.38242846    -0.33300
S325        S  0.36328318  0.36981358  0.46321838    -0.33300
H326        H  0.36950732  0.38092602  0.49539785     0.28100
H327        H  0.46112145  0.48303819  0.40694098     0.28100
H328        H  0.40395224  0.42532524  0.36147476     0.18700
H329        H  0.40654410  0.41527306  0.48425918     0.18700
C330        C  0.40206282  0.11283641  0.40562469    -0.07200
C331        C  0.42295603  0.09124958  0.38949958    -0.18300
C332        C  0.44522304  0.07462129  0.40691152     0.10000
C333        C  0.44640154  0.07800298  0.44183939    -0.07100
C334        C  0.42622133  0.09959978  0.45820666    -0.18300
C335        C  0.40405038  0.11667274  0.44081999     0.10100
S336        S  0.47255337  0.05056816  0.38267991    -0.33300
S337        S  0.37806124  0.14263689  0.46459546    -0.33300
H338        H  0.39719315  0.14603419  0.49205378     0.28100
H339        H  0.49757079  0.05533051  0.40355553     0.28100
H340        H  0.42291620  0.08670895  0.36309040     0.18700
H341        H  0.42697634  0.10231118  0.48508345     0.18700
C342        C  0.05703046  0.42389794  0.43154954    -0.07200
C343        C  0.08038224  0.40560147  0.44544345    -0.18300
C344        C  0.10287533  0.38960965  0.42501435     0.10000
C345        C  0.10235216  0.39212475  0.38947017    -0.07100
C346        C  0.07758035  0.40948638  0.37620421    -0.18300
C347        C  0.05525651  0.42497794  0.39660536     0.10100
S348        S  0.13203292  0.36629834  0.44505424    -0.33300
S349        S  0.02431888  0.44523206  0.37643101    -0.33300
H350        H  0.00176993  0.43894936  0.40184669     0.28100
H351        H  0.12188322  0.37227394  0.47842624     0.28100
H352        H  0.08167880  0.40485598  0.47244362     0.18700
H353        H  0.07419597  0.41104820  0.34983711     0.18700
C354        C  0.43173465  0.42574714  0.06420189    -0.07200
C355        C  0.44296279  0.40310558  0.08577805    -0.18300
C356        C  0.42278273  0.38607883  0.10694114     0.10000
C357        C  0.38995712  0.38996669  0.10504449    -0.07100
C358        C  0.37911780  0.41385583  0.08428726    -0.18300
C359        C  0.39940244  0.43186087  0.06460515     0.10100
S360        S  0.43981457  0.35995570  0.13653391    -0.33300
S361        S  0.38219032  0.46140370  0.03936924    -0.33300
H362        H  0.39679755  0.48550204  0.05617843     0.28100
H363        H  0.47075810  0.36949528  0.13192907     0.28100
H364        H  0.46781499  0.39891533  0.08619371     0.18700
H365        H  0.35478734  0.41968307  0.08342719     0.18700
O366        O  0.46694976  0.45537461  0.96841746    -0.81200
O367        O  0.03810765  0.07094192  0.98710025    -0.81200
O368        O  0.46949696  0.03122748  0.95231065    -0.81200
O369        O  0.03610307  0.47629066  0.94561664    -0.81200
O370        O  0.47617478  0.06977578  0.98793054    -0.81300
O371        O  0.02681900  0.43874190  0.98017927    -0.81200
O372        O  0.04239055  0.03646392  0.94659339    -0.81200
O373        O  0.42470058  0.48499562  0.97607249    -0.81200
C374        C  0.43810085  0.46155725  0.96263162     1.08500
C375        C  0.04676965  0.06353117  0.95720675     1.08400
C376        C  0.46672976  0.05975153  0.96002190     1.08500
C377        C  0.03768113  0.44786596  0.95209936     1.08400
O378        O  0.02426556  0.46278886  0.54658533    -0.81200
O379        O  0.47547252  0.03558605  0.55511139    -0.81300
O380        O  0.45273499  0.47146074  0.53210219    -0.81200
O381        O  0.07605052  0.02911037  0.51031115    -0.81200
O382        O  0.04038649  0.03618116  0.55064843    -0.81200
O383        O  0.47949676  0.42719286  0.52775587    -0.81200
O384        O  0.06471611  0.46839570  0.51134813    -0.81100
O385        O  0.43908851  0.03034812  0.51979639    -0.81200
Co386      Co  0.99599539  0.46248863  0.50896370     1.51500
Co387      Co  0.50723467  0.05197086  0.01959025     1.51700
Co388      Co  0.46240310  0.49897906  0.99294143     1.51600
Co389      Co  0.05393492  0.00093559  0.47821546     1.51500
O390        O  0.00856890  0.50907320  0.00089324    -1.43100
C391        C  0.05296129  0.45844638  0.53900192     1.08400
C392        C  0.44745396  0.03945276  0.54804306     1.08500
C393        C  0.45627408  0.44254849  0.53993727     1.08500
C394        C  0.06836238  0.03748580  0.54023532     1.08400
C395        C  0.13550729  0.13975438  0.88013016     0.85400
C396        C  0.16971689  0.13062596  0.88582047    -0.54800
C397        C  0.19094052  0.14520995  0.86531621     0.08400
C398        C  0.17595404  0.16841700  0.84134317     0.19300
C399        C  0.13495593  0.17541054  0.88466326    -0.55500
C400        C  0.15657744  0.19042330  0.86484577     0.08500
C401        C  0.13095402  0.13525347  0.84246389    -0.55000
C402        C  0.15167450  0.15022319  0.82213064     0.09000
H403        H  0.17653059  0.11436986  0.90492218     0.13600
H404        H  0.19330220  0.18021872  0.82483034    -0.00700
H405        H  0.11856764  0.18830402  0.90071619     0.13900
H406        H  0.11227472  0.12174804  0.83262352     0.13700
C407        C  0.12473412  0.37576472  0.86469334     0.85400
C408        C  0.12357010  0.34036131  0.86959872    -0.54800
C409        C  0.14519473  0.32371710  0.85049641     0.08400
C410        C  0.16560125  0.34415217  0.82758495     0.19300
C411        C  0.15893448  0.38410346  0.87032472    -0.55500
C412        C  0.18046403  0.36738082  0.85106735     0.08500
C413        C  0.12122939  0.37948631  0.82660705    -0.55000
C414        C  0.14263565  0.36339767  0.80744917     0.09000
H415        H  0.10720108  0.32946877  0.88704680     0.13600
H416        H  0.18288357  0.33050717  0.81246168    -0.00700
H417        H  0.16545743  0.40126873  0.88859098     0.13900
H418        H  0.10284517  0.39182851  0.81449173     0.13700
C419        C  0.12799008  0.36639117  0.60847901     0.85400
C420        C  0.16395162  0.36928846  0.60622200    -0.54800
C421        C  0.17961405  0.34866659  0.62549768     0.08400
C422        C  0.15794589  0.32649240  0.64491454     0.19300
C423        C  0.12288011  0.33225838  0.59872888    -0.55500
C424        C  0.13841725  0.31141193  0.61783284     0.08500
C425        C  0.11990037  0.36863270  0.64611256    -0.55000
C426        C  0.13521136  0.34793019  0.66507403     0.09000
H427        H  0.17680779  0.38554876  0.59086941     0.13600
H428        H  0.17021751  0.30977712  0.66097821    -0.00700
H429        H  0.10792653  0.32518299  0.57893374     0.13900
H430        H  0.10464183  0.38656830  0.65716909     0.13700
C431        C  0.13774297  0.12305526  0.62152439     0.85400
C432        C  0.12670940  0.15589279  0.61219769    -0.54800
C433        C  0.14085790  0.17904551  0.62877484     0.08400
C434        C  0.16467611  0.16758208  0.65378614     0.19300
C435        C  0.17337497  0.12328183  0.61652817    -0.55500
C436        C  0.18743810  0.14663860  0.63314119     0.08500
C437        C  0.13272107  0.12204201  0.66029606    -0.55000
C438        C  0.14735113  0.14495862  0.67700489     0.09000
H439        H  0.10949329  0.16046613  0.59364238     0.13600
H440        H  0.17613873  0.18653505  0.66728132    -0.00700
H441        H  0.18643033  0.10537451  0.60257891     0.13900
H442        H  0.12011063  0.10463942  0.67427362     0.13700
C443        C  0.38000980  0.13577512  0.88427903     0.85400
C444        C  0.38354146  0.17067887  0.89104829    -0.54800
C445        C  0.36324435  0.18920753  0.87462701     0.08400
C446        C  0.34109710  0.17131760  0.85283201     0.19300
C447        C  0.34518948  0.12922292  0.89261978    -0.55500
C448        C  0.32494360  0.14801348  0.87608129     0.08500
C449        C  0.38296409  0.13342955  0.84567859    -0.55000
C450        C  0.36223087  0.15146737  0.82962314     0.09000
H451        H  0.40057586  0.17986767  0.90758267     0.13600
H452        H  0.32468472  0.18629477  0.83918127    -0.00700
H453        H  0.33741586  0.11060320  0.90886810     0.13900
H454        H  0.39968395  0.11955456  0.83111490     0.13700
C455        C  0.37383097  0.12831344  0.63050904     0.85400
C456        C  0.33898525  0.12124425  0.63038290    -0.54800
C457        C  0.32027908  0.14183662  0.64788375     0.08400
C458        C  0.33811575  0.16746575  0.66509883     0.19300
C459        C  0.37646900  0.16236325  0.61879290    -0.55500
C460        C  0.35742237  0.18281952  0.63677538     0.08500
C461        C  0.38078193  0.13033805  0.66802486    -0.55000
C462        C  0.36200068  0.15055634  0.68591859     0.09000
H463        H  0.32971403  0.10208167  0.61640298     0.13600
H464        H  0.32308108  0.18377507  0.68023323    -0.00700
H465        H  0.39222647  0.16958276  0.59852295     0.13900
H466        H  0.39848331  0.11740385  0.68058614     0.13700
C467        C  0.36796125  0.37136450  0.62345387     0.85400
C468        C  0.37456676  0.33635277  0.61864043    -0.54800
C469        C  0.35641203  0.31759252  0.63849370     0.08400
C470        C  0.33177362  0.33596056  0.66021509     0.17400
C471        C  0.33289558  0.37467414  0.61626019    -0.55500
C472        C  0.31397708  0.35640509  0.63562013     0.08500
C473        C  0.36934442  0.37719675  0.66135790    -0.55000
C474        C  0.35049744  0.35878630  0.68061000     0.09000
H475        H  0.39170486  0.32738483  0.60024555     0.13600
H476        H  0.31633310  0.32145578  0.67629311    -0.00700
H477        H  0.32316308  0.38891771  0.59702492     0.13900
H478        H  0.38465844  0.39398271  0.67206113     0.13700
C479        C  0.36670478  0.37724139  0.88122623     0.85400
C480        C  0.33130588  0.38272243  0.88646600    -0.54800
C481        C  0.31371695  0.36250024  0.86929315     0.08400
C482        C  0.33296515  0.33859614  0.84831996     0.19300
C483        C  0.37246163  0.34288346  0.88966627    -0.55500
C484        C  0.35424942  0.32276508  0.87313296     0.08500
C485        C  0.37214497  0.37807510  0.84260468    -0.55000
C486        C  0.35448602  0.35788053  0.82554579     0.09000
H487        H  0.32119555  0.40183995  0.90119926     0.13600
H488        H  0.31867425  0.32229936  0.83416361    -0.00700
H489        H  0.38947291  0.33514985  0.90727339     0.13900
H490        H  0.38818707  0.39277823  0.82895731     0.13700
C491        C  0.35380445  0.35740134  0.78835577    -0.07200
C492        C  0.34912235  0.38555201  0.77180841    -0.18300
C493        C  0.34695213  0.38672912  0.73700529     0.10000
C494        C  0.34993487  0.35912025  0.71783018    -0.07100
C495        C  0.35405375  0.33089568  0.73441309    -0.18300
C496        C  0.35637280  0.32977358  0.76925028     0.10100
S497        S  0.33895245  0.42402537  0.71904976    -0.33300
S498        S  0.36485841  0.29272716  0.78739465    -0.33300
H499        H  0.38638280  0.30471938  0.80937531     0.28100
H500        H  0.32141759  0.41228867  0.69323686     0.28100
H501        H  0.34635311  0.40680733  0.78625546     0.18700
H502        H  0.35680811  0.30963089  0.71997251     0.18700
C503        C  0.35831995  0.28282044  0.63742213    -0.07200
C504        C  0.33045674  0.26664459  0.63986253    -0.18300
C505        C  0.32938254  0.23462185  0.63591819     0.10000
C506        C  0.35729645  0.21711147  0.63265491    -0.07100
C507        C  0.38562162  0.23282272  0.63123910    -0.18300
C508        C  0.38653129  0.26537917  0.63370093     0.10100
S509        S  0.29183381  0.21715561  0.63259696    -0.33300
S510        S  0.42380815  0.28348382  0.63648964    -0.33300
H511        H  0.44240709  0.25682301  0.63029620     0.28100
H512        H  0.27399408  0.24158889  0.64731028     0.28100
H513        H  0.30895536  0.27899655  0.64478227     0.18700
H514        H  0.40710485  0.21939516  0.63013625     0.18700
C515        C  0.36011144  0.15120055  0.79301491    -0.07200
C516        C  0.36145504  0.17941918  0.77593515    -0.18300
C517        C  0.36275691  0.18012179  0.74094191     0.10000
C518        C  0.36205255  0.15204177  0.72276717    -0.07100
C519        C  0.35991543  0.12397717  0.74002360    -0.18300
C520        C  0.35845881  0.12322647  0.77479699     0.10100
S521        S  0.36756846  0.21713848  0.72116253    -0.33300
S522        S  0.35338537  0.08586926  0.79409059    -0.33300
H523        H  0.33572561  0.09676494  0.82221968     0.28100
H524        H  0.38909743  0.20576913  0.69648878     0.28100
H525        H  0.36289483  0.20090367  0.78990607     0.18700
H526        H  0.35844129  0.10240785  0.72621480     0.18700
C527        C  0.36219290  0.22346726  0.87701251    -0.07200
C528        C  0.33302588  0.23804772  0.88199569    -0.18300
C529        C  0.32976689  0.27034143  0.88179981     0.10000
C530        C  0.35642996  0.28864084  0.87687528    -0.07100
C531        C  0.38577131  0.27408482  0.87304556    -0.18300
C532        C  0.38892500  0.24171678  0.87232085     0.10100
S533        S  0.29154246  0.28763894  0.88890107    -0.33300
S534        S  0.42665422  0.22427558  0.86229274    -0.33300
H535        H  0.44285022  0.25192571  0.85698173     0.28100
H536        H  0.27500918  0.25999183  0.89261232     0.28100
H537        H  0.31265845  0.22393204  0.88582281     0.18700
H538        H  0.40607715  0.28819806  0.86882757     0.18700
C539        C  0.22157186  0.14788129  0.63607919    -0.07200
C540        C  0.23340659  0.14963515  0.66827845    -0.18300
C541        C  0.26528374  0.14664418  0.67315845     0.10000
C542        C  0.28606048  0.14228243  0.64519542    -0.07100
C543        C  0.27423395  0.14133911  0.61294707    -0.18300
C544        C  0.24243913  0.14467703  0.60806404     0.10100
S545        S  0.27765515  0.14685323  0.71567902    -0.33300
S546        S  0.23029235  0.14657943  0.56546083    -0.33300
H547        H  0.20460945  0.16644869  0.57247884     0.28100
H548        H  0.30078208  0.12391138  0.70980041     0.28100
H549        H  0.21763382  0.15198392  0.69001285     0.18700
H550        H  0.29006238  0.13935975  0.59120216     0.18700
C551        C  0.13490691  0.27734636  0.61520939    -0.07200
C552        C  0.11652639  0.26307920  0.64009978    -0.18300
C553        C  0.11571395  0.23093001  0.64316530     0.10000
C554        C  0.13523220  0.21231083  0.62193257    -0.07100
C555        C  0.15146902  0.22621322  0.59490621    -0.18300
C556        C  0.15074796  0.25851925  0.59064806     0.10100
S557        S  0.08867462  0.21547178  0.67410845    -0.33300
S558        S  0.17020829  0.27359473  0.55340308    -0.33300
H559        H  0.17112322  0.30479259  0.56304206     0.28100
H560        H  0.08713924  0.18558813  0.66037190     0.28100
H561        H  0.10243559  0.27717210  0.65719033     0.18700
H562        H  0.16529809  0.21187336  0.57742698     0.18700
C563        C  0.21405528  0.34997230  0.62880756    -0.07200
C564        C  0.22752631  0.37879687  0.63503985    -0.18300
C565        C  0.25990368  0.38180150  0.63713549     0.10000
C566        C  0.27953862  0.35547524  0.63233518    -0.07100
C567        C  0.26610941  0.32725853  0.62444661    -0.18300
C568        C  0.23383877  0.32380779  0.62397364     0.10100
S569        S  0.27570262  0.41932095  0.64560538    -0.33300
S570        S  0.21884503  0.28582237  0.61677621    -0.33300
H571        H  0.24665140  0.27215027  0.60366213     0.28100
H572        H  0.24715450  0.43499773  0.65199698     0.28100
H573        H  0.21249975  0.39900992  0.63853361     0.18700
H574        H  0.28103195  0.30793455  0.61738411     0.18700
C575        C  0.14007142  0.36130545  0.77089496    -0.07200
C576        C  0.11915936  0.33998020  0.75861390    -0.18300
C577        C  0.11614427  0.33577038  0.72427084     0.10000
C578        C  0.13573243  0.35205054  0.70165824    -0.07100
C579        C  0.15489346  0.37508617  0.71392140    -0.18300
C580        C  0.15592952  0.38108786  0.74827045     0.10100
S581        S  0.08589778  0.31066094  0.71148034    -0.33300
S582        S  0.17506410  0.41600432  0.76067275    -0.33300
H583        H  0.16646718  0.41586994  0.79490001     0.28100
H584        H  0.07997321  0.32627217  0.68158678     0.28100
H585        H  0.10479760  0.32672950  0.77603782     0.18700
H586        H  0.16813358  0.38935078  0.69646243     0.18700
C587        C  0.27955972  0.36557274  0.86629762    -0.07200
C588        C  0.26859340  0.36501772  0.83388690    -0.18300
C589        C  0.23688997  0.36594897  0.82794087     0.10000
C590        C  0.21486125  0.36866616  0.85528638    -0.07100
C591        C  0.22599735  0.37003651  0.88796928    -0.18300
C592        C  0.25793432  0.36796846  0.89380010     0.10100
S593        S  0.22633070  0.36480439  0.78478264    -0.33300
S594        S  0.26920165  0.36655964  0.93675122    -0.33300
H595        H  0.29532062  0.34703518  0.93088292     0.28100
H596        H  0.25410441  0.35107949  0.77154610     0.28100
H597        H  0.28519214  0.36397627  0.81278122     0.18700
H598        H  0.20964855  0.37112663  0.90931408     0.18700
C599        C  0.14977465  0.14920920  0.78503489    -0.07200
C600        C  0.16094539  0.12269924  0.76772440    -0.18300
C601        C  0.16119113  0.12084586  0.73267114     0.10000
C602        C  0.14928130  0.14590625  0.71414253    -0.07100
C603        C  0.13773500  0.17216241  0.73154923    -0.18300
C604        C  0.13616456  0.17337144  0.76661562     0.10100
S605        S  0.17794305  0.08620618  0.71344926    -0.33300
S606        S  0.11291216  0.20433062  0.78564473    -0.33300
H607        H  0.10477341  0.18890885  0.81546488     0.28100
H608        H  0.18965444  0.10035081  0.68418804     0.28100
H609        H  0.16955545  0.10316416  0.78161079     0.18700
H610        H  0.12842765  0.19133347  0.71783629     0.18700
C611        C  0.22533096  0.14199663  0.86874191    -0.07200
C612        C  0.23803280  0.14564664  0.90045540    -0.18300
C613        C  0.27040153  0.14683337  0.90408917     0.10000
C614        C  0.29069258  0.14402199  0.87546863    -0.07100
C615        C  0.27795981  0.13937068  0.84410610    -0.18300
C616        C  0.24588567  0.13777473  0.84059026     0.10100
S617        S  0.28414619  0.15379047  0.94543171    -0.33300
S618        S  0.23271027  0.12821317  0.79984741    -0.33300
H619        H  0.21193018  0.10632471  0.81319860     0.28100
H620        H  0.30962593  0.17179006  0.93502751     0.28100
H621        H  0.22263388  0.14903609  0.92235806     0.18700
H622        H  0.29321740  0.13671616  0.82198326     0.18700
C623        C  0.15850190  0.22485738  0.86311374    -0.07200
C624        C  0.16288774  0.23812875  0.83149419    -0.18300
C625        C  0.15798405  0.26972249  0.82623329     0.10000
C626        C  0.15021895  0.28951819  0.85389146    -0.07100
C627        C  0.14890011  0.27658755  0.88619921    -0.18300
C628        C  0.15342673  0.24473256  0.89114108     0.10100
S629        S  0.15850022  0.28252876  0.78333058    -0.33300
S630        S  0.15499223  0.23144112  0.93376220    -0.33300
H631        H  0.17556473  0.20644106  0.92632552     0.28100
H632        H  0.17481058  0.25696886  0.76886828     0.28100
H633        H  0.16814753  0.22337750  0.81007529     0.18700
H634        H  0.14498618  0.29150156  0.90792100     0.18700
C635        C  0.11203240  0.12044719  0.90093368    -0.07200
C636        C  0.08920491  0.13433186  0.92297577    -0.18300
C637        C  0.06664885  0.11680102  0.94030324     0.10000
C638        C  0.06683781  0.08431556  0.93655491    -0.07100
C639        C  0.08931411  0.07039672  0.91464888    -0.18300
C640        C  0.11175346  0.08769562  0.89712596     0.10100
S641        S  0.03748970  0.13747717  0.96570897    -0.33300
S642        S  0.13958067  0.06692773  0.86968705    -0.33300
H643        H  0.13544267  0.03748592  0.88386433     0.28100
H644        H  0.01517213  0.11723680  0.46025769     0.28100
H645        H  0.08790245  0.15898760  0.92675506     0.18700
H646        H  0.08979021  0.04547780  0.91165481     0.18700
C647        C  0.07204648  0.43746635  0.55940347    -0.07200
C648        C  0.05775730  0.41222530  0.57520050    -0.18300
C649        C  0.07523634  0.38885220  0.59041957     0.10000
C650        C  0.10830925  0.39033298  0.58975758    -0.07100
C651        C  0.12218808  0.41649703  0.57476531    -0.18300
C652        C  0.10462857  0.43981781  0.55980933     0.10100
S653        S  0.05448706  0.35782589  0.61129885    -0.33300
S654        S  0.12422720  0.47345147  0.54312986    -0.33300
H655        H  0.15466417  0.46107721  0.54304508     0.28100
H656        H  0.02449067  0.36616644  0.60155578     0.28100
H657        H  0.03272409  0.41042388  0.57486721     0.18700
H658        H  0.14673336  0.42002772  0.57552081     0.18700
C659        C  0.39278716  0.10434713  0.60905097    -0.07200
C660        C  0.41352256  0.08309664  0.62374287    -0.18300
C661        C  0.42970312  0.06020897  0.60496693     0.10000
C662        C  0.42620392  0.05836711  0.57018567    -0.07100
C663        C  0.40435881  0.07793817  0.55551860    -0.18300
C664        C  0.38764994  0.10068274  0.57431955     0.10100
S665        S  0.45352350  0.03313403  0.62725593    -0.33300
S666        S  0.35984588  0.12465159  0.55312300    -0.33300
H667        H  0.35700283  0.10501776  0.52523563     0.28100
H668        H  0.44792900  0.00771890  0.60625424     0.28100
H669        H  0.41709211  0.08287490  0.65016324     0.18700
H670        H  0.40108816  0.07614195  0.52888826     0.18700
C671        C  0.09066609  0.05384270  0.56122546    -0.07200
C672        C  0.11024189  0.07559201  0.54581748    -0.18300
C673        C  0.12620251  0.09736420  0.56465978     0.10000
C674        C  0.12277385  0.09763268  0.60033366    -0.07100
C675        C  0.10475829  0.07406640  0.61545693    -0.18300
C676        C  0.08899544  0.05241881  0.59650713     0.10100
S677        S  0.14953249  0.12555984  0.54217963    -0.33300
S678        S  0.06679655  0.02360597  0.61904583    -0.33300
H679        H  0.07019517  0.00069271  0.59397154     0.28100
H680        H  0.14686362  0.11315169  0.50980829     0.28100
H681        H  0.11142990  0.07683769  0.51873246     0.18700
H682        H  0.10212022  0.07200869  0.64220540     0.18700
C683        C  0.38557395  0.39961041  0.90240537    -0.07200
C684        C  0.40456379  0.42245753  0.88721061    -0.18300
C685        C  0.42141922  0.44318483  0.90612053     0.10000
C686        C  0.42049599  0.44096659  0.94117614    -0.07100
C687        C  0.40165869  0.41880738  0.95674427    -0.18300
C688        C  0.38373594  0.39864572  0.93808687     0.10100
S689        S  0.44299173  0.47256218  0.88404845    -0.33300
S690        S  0.35835257  0.37229313  0.96070289    -0.33300
H691        H  0.36502342  0.38181548  0.99333457     0.28100
H692        H  0.43684837  0.49571996  0.90835074     0.28100
H693        H  0.40594370  0.42564746  0.86054952     0.18700
H694        H  0.40090902  0.41747883  0.98380253     0.18700
C695        C  0.40303970  0.11560247  0.90377855    -0.07200
C696        C  0.42445137  0.09471842  0.88722933    -0.18300
C697        C  0.44678971  0.07791039  0.90443572     0.10000
C698        C  0.44768638  0.08063461  0.93945456    -0.07100
C699        C  0.42691999  0.10145678  0.95616593    -0.18300
C700        C  0.40449566  0.11840808  0.93908572     0.10100
S701        S  0.47440409  0.05436651  0.87995698    -0.33300
S702        S  0.37734099  0.14268891  0.96343929    -0.33300
H703        H  0.39651094  0.14665435  0.99076649     0.28100
H704        H  0.49925985  0.05879862  0.90116275     0.28100
H705        H  0.42461150  0.09072004  0.86069810     0.18700
H706        H  0.42741125  0.10362508  0.98309815     0.18700
C707        C  0.05634758  0.42699275  0.92945721    -0.07200
C708        C  0.07786231  0.40655846  0.94338052    -0.18300
C709        C  0.10032724  0.39032631  0.92322751     0.10000
C710        C  0.10103822  0.39388093  0.88778660    -0.07100
C711        C  0.07916844  0.41477169  0.87439687    -0.18300
C712        C  0.05692058  0.43070839  0.89451453     0.10100
S713        S  0.12876504  0.36643212  0.94364635    -0.33300
S714        S  0.02965174  0.45550807  0.87384771    -0.33300
H715        H  0.00493171  0.44995332  0.89698835     0.28100
H716        H  0.11633728  0.36989156  0.97660231     0.28100
H717        H  0.07807581  0.40457437  0.97038101     0.18700
H718        H  0.07889724  0.41987169  0.84816921     0.18700
C719        C  0.43358720  0.42739234  0.56331243    -0.07200
C720        C  0.44442724  0.40512950  0.58556215    -0.18300
C721        C  0.42386053  0.38803610  0.60616532     0.10000
C722        C  0.39111917  0.39168437  0.60325616    -0.07100
C723        C  0.38062067  0.41515264  0.58181952    -0.18300
C724        C  0.40123528  0.43316891  0.56259644     0.10100
S725        S  0.44028835  0.36259809  0.63681673    -0.33300
S726        S  0.38443048  0.46246140  0.53674078    -0.33300
H727        H  0.39826160  0.48671518  0.55409874     0.28100
H728        H  0.47068691  0.36132991  0.62261026     0.28100
H729        H  0.46927188  0.40149639  0.58718127     0.18700
H730        H  0.35628269  0.42062786  0.58008161     0.18700
O731        O  0.46687188  0.95526265  0.46787606    -0.81200
O732        O  0.03627888  0.57058329  0.49018599    -0.81200
O733        O  0.46888593  0.52960627  0.45336326    -0.81200
O734        O  0.03852298  0.97230797  0.44420430    -0.81200
O735        O  0.47477921  0.56810754  0.48917968    -0.81300
O736        O  0.02880733  0.93546618  0.47947677    -0.81200
O737        O  0.04147689  0.53606565  0.44987307    -0.81200
O738        O  0.42491688  0.98504896  0.47693221    -0.81200
C739        C  0.43784865  0.96156385  0.46305345     1.08500
C740        C  0.04599344  0.56304472  0.46062990     1.08400
C741        C  0.46561662  0.55807250  0.46120914     1.08500
C742        C  0.03973026  0.94400135  0.45126710     1.08400
O743        O  0.02604824  0.96298866  0.04338112    -0.81200
O744        O  0.47208669  0.53567400  0.05621048    -0.81300
O745        O  0.45329647  0.97345297  0.03126061    -0.81200
O746        O  0.07381463  0.53104522  0.01283216    -0.81200
O747        O  0.03812350  0.53785981  0.05338189    -0.81200
O748        O  0.47892389  0.92874116  0.02498383    -0.81200
O749        O  0.06617374  0.96854050  0.00753893    -0.81100
O750        O  0.43688611  0.53054065  0.01955860    -0.81200
Co751      Co  0.99687866  0.96336058  0.00656429     1.51500
Co752      Co  0.50608323  0.55070380  0.52055949     1.51700
Co753      Co  0.46338878  0.99879672  0.49226692     1.51600
Co754      Co  0.05185258  0.50405021  0.98000437     1.51500
O755        O  0.01046361  0.00623136  0.49900000    -1.43100
C756        C  0.05465674  0.95854653  0.03529023     1.08400
C757        C  0.44431548  0.53951491  0.04822168     1.08500
C758        C  0.45642704  0.94433093  0.03833274     1.08500
C759        C  0.06615181  0.53880758  0.04289606     1.08400
C760        C  0.13655972  0.63732630  0.38309710     0.85400
C761        C  0.17109471  0.62910407  0.38813282    -0.54800
C762        C  0.19157308  0.64369229  0.36667208     0.08400
C763        C  0.17552212  0.66572679  0.34226766     0.19300
C764        C  0.13530277  0.67314486  0.38623332    -0.55500
C765        C  0.15613619  0.68796347  0.36526935     0.08500
C766        C  0.13131052  0.63155636  0.34577591    -0.55000
C767        C  0.15122745  0.64643874  0.32446621     0.09000
H768        H  0.17866517  0.61361635  0.40761339     0.13600
H769        H  0.19210095  0.67758593  0.32489332    -0.00700
H770        H  0.11884707  0.68626853  0.40198218     0.13900
H771        H  0.11247525  0.61768364  0.33687382     0.13700
C772        C  0.12563102  0.87284142  0.36230423     0.85400
C773        C  0.12425962  0.83758607  0.36698886    -0.54800
C774        C  0.14553156  0.82089939  0.34770891     0.08400
C775        C  0.16607213  0.84112404  0.32467738     0.19300
C776        C  0.15996795  0.88100653  0.36762273    -0.55500
C777        C  0.18138074  0.86415298  0.34820012     0.08500
C778        C  0.12224309  0.87731591  0.32431663    -0.55000
C779        C  0.14324520  0.86093496  0.30486152     0.09000
H780        H  0.10806638  0.82676887  0.38470405     0.13600
H781        H  0.18282718  0.82705870  0.30928146    -0.00700
H782        H  0.16665035  0.89828130  0.38568395     0.13900
H783        H  0.10524408  0.89174230  0.31245973     0.13700
C784        C  0.13018647  0.86700205  0.10496701     0.85400
C785        C  0.16606241  0.87035683  0.10305870    -0.54800
C786        C  0.18170040  0.85007508  0.12268208     0.08400
C787        C  0.16022314  0.82786763  0.14222152     0.19300
C788        C  0.12564655  0.83260094  0.09556288    -0.55500
C789        C  0.14117602  0.81213413  0.11520410     0.08500
C790        C  0.12164501  0.86951057  0.14253273    -0.55000
C791        C  0.13698879  0.84917102  0.16191112     0.09000
H792        H  0.17887122  0.88654329  0.08754027     0.13600
H793        H  0.17269822  0.81150280  0.15853021    -0.00700
H794        H  0.11078268  0.82506587  0.07589130     0.13900
H795        H  0.10590686  0.88723022  0.15320573     0.13700
C796        C  0.13437113  0.62392031  0.12428144     0.85400
C797        C  0.12367655  0.65699804  0.11523701    -0.54800
C798        C  0.13806504  0.67986324  0.13209333     0.08400
C799        C  0.16141991  0.66775766  0.15735836     0.19300
C800        C  0.16997851  0.62386889  0.11956123    -0.55500
C801        C  0.18413605  0.64691995  0.13648902     0.08500
C802        C  0.12882600  0.62251813  0.16284428    -0.55000
C803        C  0.14357446  0.64491894  0.18001129     0.09000
H804        H  0.10686687  0.66195167  0.09636421     0.13600
H805        H  0.17295364  0.68636891  0.17130580    -0.00700
H806        H  0.18292435  0.60608895  0.10530199     0.13900
H807        H  0.11563409  0.60526905  0.17643064     0.13700
C808        C  0.38052183  0.63573765  0.38510742     0.85400
C809        C  0.38488683  0.67060795  0.39143006    -0.54800
C810        C  0.36474441  0.68932903  0.37505793     0.08400
C811        C  0.34219483  0.67179467  0.35350378     0.19300
C812        C  0.34558850  0.63001655  0.39371508    -0.55500
C813        C  0.32567078  0.64901954  0.37701098     0.08500
C814        C  0.38320288  0.63295536  0.34645977    -0.55000
C815        C  0.36281200  0.65137362  0.33035188     0.09000
H816        H  0.40225798  0.67966288  0.40765011     0.13600
H817        H  0.32602169  0.68705669  0.33986966    -0.00700
H818        H  0.33748003  0.61167476  0.41015884     0.13900
H819        H  0.39940610  0.61846903  0.33192029     0.13700
C820        C  0.37067641  0.62829705  0.13095836     0.85400
C821        C  0.33564012  0.62234600  0.13059581    -0.54800
C822        C  0.31747279  0.64326932  0.14830566     0.08400
C823        C  0.33603731  0.66822888  0.16586802     0.19300
C824        C  0.37443043  0.66237336  0.11964270    -0.55500
C825        C  0.35597516  0.68327345  0.13774191     0.08500
C826        C  0.37749263  0.62968326  0.16855502    -0.55000
C827        C  0.35931565  0.65027888  0.18663251     0.09000
H828        H  0.32587983  0.60346886  0.11658178     0.13600
H829        H  0.32144995  0.68492010  0.18103849    -0.00700
H830        H  0.39039657  0.66926940  0.09941799     0.13900
H831        H  0.39483707  0.61618086  0.18101761     0.13700
C832        C  0.36949810  0.87201267  0.12210293     0.85400
C833        C  0.37589638  0.83687209  0.11749844    -0.54800
C834        C  0.35743856  0.81833413  0.13738734     0.08400
C835        C  0.33297860  0.83704251  0.15898206     0.17400
C836        C  0.33452539  0.87545707  0.11477322    -0.55500
C837        C  0.31550268  0.85744427  0.13417129     0.08500
C838        C  0.37093756  0.87793550  0.15999709    -0.55000
C839        C  0.35186159  0.85982677  0.17937636     0.09000
H840        H  0.39301406  0.82765954  0.09922583     0.13600
H841        H  0.31729582  0.82269234  0.17496454    -0.00700
H842        H  0.32491424  0.88943159  0.09523212     0.13900
H843        H  0.38657045  0.89448217  0.17057560     0.13700
C844        C  0.36743748  0.87707252  0.38068655     0.85400
C845        C  0.33193403  0.88238172  0.38493710    -0.54800
C846        C  0.31481766  0.86188229  0.36753465     0.08400
C847        C  0.33465334  0.83793277  0.34725670     0.19300
C848        C  0.37325186  0.84287944  0.38956442    -0.55500
C849        C  0.35563777  0.82253872  0.37269836     0.08500
C850        C  0.37365532  0.87764320  0.34211110    -0.55000
C851        C  0.35638276  0.85730369  0.32467452     0.09000
H852        H  0.32144206  0.90157507  0.39924330     0.13600
H853        H  0.32067892  0.82126534  0.33322486    -0.00700
H854        H  0.38991380  0.83538018  0.40766411     0.13900
H855        H  0.38974303  0.89249607  0.32874784     0.13700
C856        C  0.35576644  0.85729349  0.28733914    -0.07200
C857        C  0.35257858  0.88581615  0.27101170    -0.18300
C858        C  0.35027735  0.88753400  0.23620380     0.10000
C859        C  0.35152580  0.86001715  0.21669337    -0.07100
C860        C  0.35420656  0.83149156  0.23305776    -0.18300
C861        C  0.35673240  0.82984336  0.26785601     0.10100
S862        S  0.34440337  0.92552010  0.21887523    -0.33300
S863        S  0.36358263  0.79219758  0.28535495    -0.33300
H864        H  0.38582540  0.80288650  0.30724867     0.28100
H865        H  0.32697198  0.91544618  0.19218067     0.28100
H866        H  0.35102656  0.90703264  0.28564245     0.18700
H867        H  0.35575844  0.81026067  0.21844497     0.18700
C868        C  0.35870439  0.78348333  0.13647556    -0.07200
C869        C  0.33047275  0.76780903  0.13823962    -0.18300
C870        C  0.32897920  0.73565199  0.13526719     0.10000
C871        C  0.35661111  0.71762111  0.13339479    -0.07100
C872        C  0.38521415  0.73289528  0.13232417    -0.18300
C873        C  0.38662978  0.76551292  0.13388942     0.10100
S874        S  0.29133015  0.71856621  0.13130970    -0.33300
S875        S  0.42411729  0.78318007  0.13667987    -0.33300
H876        H  0.44231845  0.75632714  0.13006041     0.28100
H877        H  0.27346464  0.74376265  0.14428359     0.28100
H878        H  0.30912559  0.78064700  0.14182940     0.18700
H879        H  0.40646733  0.71913414  0.13205954     0.18700
C880        C  0.36028642  0.65096575  0.29376585    -0.07200
C881        C  0.36282818  0.67899258  0.27645941    -0.18300
C882        C  0.36310633  0.67959594  0.24147455     0.10000
C883        C  0.35991999  0.65170132  0.22350889    -0.07100
C884        C  0.35672730  0.62382132  0.24099289    -0.18300
C885        C  0.35653267  0.62312771  0.27580491     0.10100
S886        S  0.37001440  0.71608099  0.22128591    -0.33300
S887        S  0.35056031  0.58605638  0.29547574    -0.33300
H888        H  0.33481447  0.59754767  0.32454640     0.28100
H889        H  0.39046833  0.70324563  0.19639315     0.28100
H890        H  0.36596674  0.70034271  0.29022182     0.18700
H891        H  0.35369000  0.60239015  0.22734876     0.18700
C892        C  0.36391458  0.72350342  0.37756091    -0.07200
C893        C  0.33509311  0.73813461  0.38476822    -0.18300
C894        C  0.33187493  0.77042165  0.38438422     0.10000
C895        C  0.35815560  0.78854639  0.37680383    -0.07100
C896        C  0.38725725  0.77396448  0.37088909    -0.18300
C897        C  0.39036226  0.74159361  0.37060781     0.10100
S898        S  0.29428120  0.78806807  0.39429590    -0.33300
S899        S  0.42740691  0.72379406  0.35832173    -0.33300
H900        H  0.44435727  0.75126553  0.35556688     0.28100
H901        H  0.27828940  0.76062908  0.40152065     0.28100
H902        H  0.31495876  0.72407045  0.39027553     0.18700
H903        H  0.40724764  0.78802518  0.36475709     0.18700
C904        C  0.21834189  0.64844846  0.13866201    -0.07200
C905        C  0.23078340  0.65057957  0.17053788    -0.18300
C906        C  0.26281736  0.64803150  0.17469431     0.10000
C907        C  0.28314918  0.64394294  0.14632336    -0.07100
C908        C  0.27069927  0.64255811  0.11440429    -0.18300
C909        C  0.23874662  0.64520695  0.11022460     0.10100
S910        S  0.27597818  0.64793243  0.21686900    -0.33300
S911        S  0.22583064  0.64591721  0.06786952    -0.33300
H912        H  0.20021450  0.66583826  0.07490083     0.28100
H913        H  0.29816786  0.62420236  0.21039526     0.28100
H914        H  0.21537909  0.65273094  0.19259682     0.18700
H915        H  0.28613268  0.64052278  0.09234328     0.18700
C916        C  0.13676182  0.77803290  0.11453410    -0.07200
C917        C  0.11950715  0.76548504  0.14138930    -0.18300
C918        C  0.11695543  0.73361691  0.14579425     0.10000
C919        C  0.13413753  0.71325245  0.12424418    -0.07100
C920        C  0.14969192  0.72543844  0.09572709    -0.18300
C921        C  0.15035267  0.75758287  0.08998857     0.10100
S922        S  0.09021156  0.72082097  0.17841404    -0.33300
S923        S  0.16862799  0.77024618  0.05102168    -0.33300
H924        H  0.17006256  0.80193075  0.05834861     0.28100
H925        H  0.08587784  0.69099407  0.16542483     0.28100
H926        H  0.10755709  0.78077794  0.15899383     0.18700
H927        H  0.16178270  0.70985073  0.07808735     0.18700
C928        C  0.21602783  0.85138444  0.12597132    -0.07200
C929        C  0.22927299  0.87982249  0.13423590    -0.18300
C930        C  0.26159974  0.88265385  0.13679061     0.10000
C931        C  0.28124535  0.85661847  0.13041897    -0.07100
C932        C  0.26810135  0.82893079  0.12020788    -0.18300
C933        C  0.23585163  0.82558290  0.11924357     0.10100
S934        S  0.27744288  0.91952883  0.14791433    -0.33300
S935        S  0.22077643  0.78827477  0.10898293    -0.33300
H936        H  0.24911491  0.77424988  0.09796505     0.28100
H937        H  0.24893813  0.93574132  0.15219950     0.28100
H938        H  0.21412292  0.89975014  0.13903653     0.18700
H939        H  0.28317953  0.81012938  0.11191797     0.18700
C940        C  0.14094942  0.85998332  0.26819083    -0.07200
C941        C  0.11875409  0.84051355  0.25507320    -0.18300
C942        C  0.11548331  0.83780874  0.22058425     0.10000
C943        C  0.13666262  0.85299217  0.19861433    -0.07100
C944        C  0.15726954  0.87425479  0.21176758    -0.18300
C945        C  0.15816677  0.87936136  0.24630995     0.10100
S946        S  0.08271530  0.81636650  0.20710638    -0.33300
S947        S  0.17897594  0.91276122  0.26008589    -0.33300
H948        H  0.16557053  0.91497045  0.29262577     0.28100
H949        H  0.08025747  0.83075435  0.17590153     0.28100
H950        H  0.10336654  0.82781376  0.27197527     0.18700
H951        H  0.17173454  0.88794927  0.19488683     0.18700
C952        C  0.28062805  0.86444183  0.36397427    -0.07200
C953        C  0.26989417  0.86247003  0.33148340    -0.18300
C954        C  0.23818795  0.86257808  0.32519161     0.10000
C955        C  0.21588730  0.86559014  0.35232987    -0.07100
C956        C  0.22684823  0.86846065  0.38499054    -0.18300
C957        C  0.25872899  0.86746079  0.39115379     0.10100
S958        S  0.22791873  0.85882724  0.28204025    -0.33300
S959        S  0.26951543  0.86823164  0.43429371    -0.33300
H960        H  0.29590130  0.84885495  0.42983817     0.28100
H961        H  0.25756214  0.86314260  0.26681803     0.28100
H962        H  0.28671862  0.86047560  0.31066907     0.18700
H963        H  0.21041248  0.86999075  0.40622808     0.18700
C964        C  0.14764808  0.64571603  0.28771716    -0.07200
C965        C  0.16030586  0.62055459  0.26922578    -0.18300
C966        C  0.15950056  0.61960754  0.23422253     0.10000
C967        C  0.14559248  0.64450876  0.21704761    -0.07100
C968        C  0.13183198  0.66892908  0.23576305    -0.18300
C969        C  0.13125898  0.66906509  0.27078402     0.10100
S970        S  0.17673246  0.58593734  0.21343996    -0.33300
S971        S  0.10650359  0.69785572  0.29177054    -0.33300
H972        H  0.10049715  0.68123626  0.32130126     0.28100
H973        H  0.18715825  0.60103640  0.18431670     0.28100
H974        H  0.17082116  0.60136385  0.28212513     0.18700
H975        H  0.12014679  0.68738205  0.22316185     0.18700
C976        C  0.22609654  0.64193504  0.36976041    -0.07200
C977        C  0.23881110  0.64650705  0.40133971    -0.18300
C978        C  0.27112375  0.64853612  0.40484530     0.10000
C979        C  0.29140390  0.64540062  0.37628991    -0.07100
C980        C  0.27870300  0.64045134  0.34496070    -0.18300
C981        C  0.24666225  0.63825589  0.34149780     0.10100
S982        S  0.28480149  0.65709580  0.44587471    -0.33300
S983        S  0.23366918  0.62875971  0.30062714    -0.33300
H984        H  0.21305414  0.60661143  0.31369066     0.28100
H985        H  0.31015158  0.67495348  0.43474050     0.28100
H986        H  0.22341729  0.64990954  0.42324228     0.18700
H987        H  0.29395872  0.63793761  0.32282655     0.18700
C988        C  0.15741630  0.72230426  0.36210390    -0.07200
C989        C  0.16015682  0.73477764  0.32984124    -0.18300
C990        C  0.15566100  0.76640302  0.32406281     0.10000
C991        C  0.15021791  0.78681298  0.35160359    -0.07100
C992        C  0.15004883  0.77459577  0.38419826    -0.18300
C993        C  0.15391938  0.74281489  0.38975269     0.10100
S994        S  0.15440263  0.77916863  0.28117986    -0.33300
S995        S  0.15642960  0.73038372  0.43259366    -0.33300
H996        H  0.17696690  0.70534290  0.42524641     0.28100
H997        H  0.15704320  0.74999000  0.26542397     0.28100
H998        H  0.16426517  0.71945965  0.30863831     0.18700
H999        H  0.14744545  0.79003200  0.40565065     0.18700
C1000       C  0.11369943  0.61833710  0.40515372    -0.07200
C1001       C  0.09172039  0.63263565  0.42785887    -0.18300
C1002       C  0.06866365  0.61571986  0.44518050     0.10000
C1003       C  0.06741102  0.58333826  0.44078036    -0.07100
C1004       C  0.08970718  0.56887539  0.41898518    -0.18300
C1005       C  0.11279158  0.58558805  0.40162865     0.10100
S1006       S  0.04083249  0.63717309  0.47150771    -0.33300
S1007       S  0.14068429  0.56422423  0.37478098    -0.33300
H1008       H  0.13300324  0.53431603  0.38566486     0.28100
H1009       H  0.01492969  0.62029970  0.96147140     0.28100
H1010       H  0.09151904  0.65721205  0.43225868     0.18700
H1011       H  0.08947400  0.54398203  0.41592995     0.18700
C1012       C  0.07389910  0.93750857  0.05540750    -0.07200
C1013       C  0.05991119  0.91161720  0.07013384    -0.18300
C1014       C  0.07751956  0.88850505  0.08556407     0.10000
C1015       C  0.11049374  0.89067304  0.08584062    -0.07100
C1016       C  0.12406693  0.91752294  0.07193984    -0.18300
C1017       C  0.10630308  0.94076530  0.05702922     0.10100
S1018       S  0.05694609  0.85672962  0.10511263    -0.33300
S1019       S  0.12531970  0.97509640  0.04130111    -0.33300
H1020       H  0.15433875  0.96959941  0.05528338     0.28100
H1021       H  0.02695606  0.86997252  0.10426405     0.28100
H1022       H  0.03503015  0.90901653  0.06867177     0.18700
H1023       H  0.14850733  0.92145996  0.07330345     0.18700
C1024       C  0.38907109  0.60393904  0.10934985    -0.07200
C1025       C  0.40900141  0.58191698  0.12402120    -0.18300
C1026       C  0.42509382  0.55907897  0.10508553     0.10000
C1027       C  0.42242028  0.55804307  0.07014110    -0.07100
C1028       C  0.40106358  0.57815776  0.05544573    -0.18300
C1029       C  0.38429703  0.60079753  0.07446492     0.10100
S1030       S  0.44779130  0.53101431  0.12734382    -0.33300
S1031       S  0.35689905  0.62530731  0.05337392    -0.33300
H1032       H  0.35386158  0.60583145  0.02538776     0.28100
H1033       H  0.44236554  0.50626049  0.10537373     0.28100
H1034       H  0.41197473  0.58103989  0.15053006     0.18700
H1035       H  0.39826908  0.57690383  0.02869858     0.18700
C1036       C  0.08865473  0.55473681  0.06360278    -0.07200
C1037       C  0.10691024  0.57755545  0.04826487    -0.18300
C1038       C  0.12263412  0.59926301  0.06721819     0.10000
C1039       C  0.11985800  0.59857839  0.10287176    -0.07100
C1040       C  0.10382118  0.57352841  0.11778521    -0.18300
C1041       C  0.08847346  0.55178179  0.09865039     0.10100
S1042       S  0.14501415  0.62830873  0.04493924    -0.33300
S1043       S  0.06911383  0.52064092  0.12043809    -0.33300
H1044       H  0.07179295  0.49950247  0.09357245     0.28100
H1045       H  0.14254561  0.61607884  0.01245545     0.28100
H1046       H  0.10720484  0.57963893  0.02124900     0.18700
H1047       H  0.10285365  0.57008261  0.14442276     0.18700
C1048       C  0.38569345  0.89965337  0.40230373    -0.07200
C1049       C  0.40520696  0.92218758  0.38741126    -0.18300
C1050       C  0.42158952  0.94307887  0.40656295     0.10000
C1051       C  0.41976655  0.94133848  0.44163392    -0.07100
C1052       C  0.40021852  0.91963492  0.45700402    -0.18300
C1053       C  0.38284660  0.89916593  0.43800942     0.10100
S1054       S  0.44346153  0.97237499  0.38473937    -0.33300
S1055       S  0.35695738  0.87297648  0.46017015    -0.33300
H1056       H  0.36464223  0.88110291  0.49293051     0.28100
H1057       H  0.43649189  0.99573338  0.40860918     0.28100
H1058       H  0.40742314  0.92498995  0.36073568     0.18700
H1059       H  0.39857524  0.91885270  0.48410819     0.18700
C1060       C  0.40305631  0.61518443  0.40481641    -0.07200
C1061       C  0.42375027  0.59355524  0.38840176    -0.18300
C1062       C  0.44562046  0.57620845  0.40565743     0.10000
C1063       C  0.44660436  0.57898321  0.44064912    -0.07100
C1064       C  0.42636045  0.60035574  0.45732561    -0.18300
C1065       C  0.40460575  0.61810899  0.44014023     0.10100
S1066       S  0.47261945  0.55195905  0.38124276    -0.33300
S1067       S  0.37849635  0.64366733  0.46433065    -0.33300
H1068       H  0.39654701  0.64523306  0.49284335     0.28100
H1069       H  0.49786359  0.55677004  0.40182299     0.28100
H1070       H  0.42375491  0.58944814  0.36189742     0.18700
H1071       H  0.42680759  0.60243486  0.48429315     0.18700
C1072       C  0.05775067  0.92247581  0.42888315    -0.07200
C1073       C  0.08145328  0.90436809  0.44229357    -0.18300
C1074       C  0.10337707  0.88813500  0.42147809     0.10000
C1075       C  0.10179225  0.89005908  0.38597933    -0.07100
C1076       C  0.07658200  0.90711707  0.37318605    -0.18300
C1077       C  0.05487825  0.92301923  0.39403309     0.10100
S1078       S  0.13329183  0.86540036  0.44101254    -0.33300
S1079       S  0.02344657  0.94320946  0.37460967    -0.33300
H1080       H  0.00164841  0.93803358  0.40108460     0.28100
H1081       H  0.12425664  0.87214423  0.47454067     0.28100
H1082       H  0.08354785  0.90406771  0.46921390     0.18700
H1083       H  0.07253071  0.90823895  0.34690737     0.18700
C1084       C  0.43424737  0.92915559  0.06219409    -0.07200
C1085       C  0.44544431  0.90633910  0.08360907    -0.18300
C1086       C  0.42519601  0.88894332  0.10425557     0.10000
C1087       C  0.39243114  0.89253428  0.10185104    -0.07100
C1088       C  0.38162111  0.91682414  0.08159856    -0.18300
C1089       C  0.40193713  0.93526599  0.06251682     0.10100
S1090       S  0.44210196  0.86269229  0.13375597    -0.33300
S1091       S  0.38482569  0.96546113  0.03806923    -0.33300
H1092       H  0.39974630  0.98906367  0.05535941     0.28100
H1093       H  0.47141455  0.87650674  0.13388308     0.28100
H1094       H  0.47029215  0.90213429  0.08422715     0.18700
H1095       H  0.35729162  0.92272917  0.08085456     0.18700
O1096       O  0.46915921  0.95757365  0.96645068    -0.81200
O1097       O  0.03858737  0.57262881  0.99161451    -0.81200
O1098       O  0.46742388  0.52824305  0.95556526    -0.81200
O1099       O  0.03632125  0.97363718  0.94315420    -0.81200
O1100       O  0.47372093  0.56698551  0.99106953    -0.81300
O1101       O  0.02697151  0.93683405  0.97862946    -0.81200
O1102       O  0.04256552  0.53876020  0.95057623    -0.81200
O1103       O  0.42702274  0.98769028  0.97294235    -0.81200
C1104       C  0.44037306  0.96380361  0.96035373     1.08500
C1105       C  0.04758333  0.56548283  0.96174460     1.08400
C1106       C  0.46468842  0.55679670  0.96301592     1.08500
C1107       C  0.03828398  0.94542661  0.95057887     1.08400
O1108       O  0.02707800  0.96179534  0.54440140    -0.81200
O1109       O  0.47435002  0.53696535  0.55391868    -0.81300
O1110       O  0.45318101  0.97022762  0.53387702    -0.81200
O1111       O  0.07246712  0.53029762  0.51250827    -0.81200
O1112       O  0.03665255  0.53720033  0.55280066    -0.81200
O1113       O  0.47797048  0.92533893  0.52530755    -0.81200
O1114       O  0.06763421  0.96697796  0.50915972    -0.81100
O1115       O  0.43881051  0.53088076  0.51760775    -0.81200
Co1116     Co  0.99853575  0.96202848  0.50701693     1.51500
Co1117     Co  0.50440500  0.54937638  0.02337164     1.51700
Co1118     Co  0.46473680  0.00174052  0.98963385     1.51600
Co1119     Co  0.05087608  0.50214960  0.48033042     1.51500
O1120       O  0.00891269  0.00755807  0.99847819    -1.43100
C1121       C  0.05573460  0.95716421  0.53681926     1.08400
C1122       C  0.44638460  0.53985204  0.54623866     1.08500
C1123       C  0.45599356  0.94085530  0.53982685     1.08500
C1124       C  0.06464640  0.53853297  0.54238383     1.08400
C1125       C  0.13677261  0.63960432  0.88252216     0.85400
C1126       C  0.17131329  0.63173579  0.88808168    -0.54800
C1127       C  0.19187167  0.64600626  0.86646635     0.08400
C1128       C  0.17592767  0.66762076  0.84155501     0.19300
C1129       C  0.13528726  0.67539583  0.88505544    -0.55500
C1130       C  0.15629849  0.69004588  0.86420249     0.08500
C1131       C  0.13190958  0.63316375  0.84522716    -0.55000
C1132       C  0.15192856  0.64783593  0.82380510     0.09000
H1133       H  0.17882741  0.61659371  0.90789732     0.13600
H1134       H  0.19261659  0.67928883  0.82412782    -0.00700
H1135       H  0.11893714  0.68864234  0.90080008     0.13900
H1136       H  0.11327323  0.61896990  0.83642158     0.13700
C1137       C  0.12895010  0.87583050  0.86512579     0.85400
C1138       C  0.12729379  0.84052480  0.86968018    -0.54800
C1139       C  0.14825610  0.82366183  0.85009627     0.08400
C1140       C  0.16907439  0.84382745  0.82740262     0.19300
C1141       C  0.16341776  0.88361511  0.87057229    -0.55500
C1142       C  0.18466415  0.86646076  0.85116438     0.08500
C1143       C  0.12595750  0.88077809  0.82716797    -0.55000
C1144       C  0.14659836  0.86406110  0.80765137     0.09000
H1145       H  0.11098045  0.82982660  0.88735387     0.13600
H1146       H  0.18568209  0.82966223  0.81200181    -0.00700
H1147       H  0.17034045  0.90087881  0.88851145     0.13900
H1148       H  0.10960298  0.89615372  0.81552479     0.13700
C1149       C  0.13026221  0.86622132  0.60855064     0.85400
C1150       C  0.16621944  0.86921354  0.60656388    -0.54800
C1151       C  0.18169007  0.84879860  0.62624707     0.08400
C1152       C  0.15997820  0.82689084  0.64585725     0.19300
C1153       C  0.12539481  0.83194431  0.59922540    -0.55500
C1154       C  0.14065897  0.81140898  0.61891040     0.08500
C1155       C  0.12181346  0.86890750  0.64611299    -0.55000
C1156       C  0.13715262  0.84856766  0.66552872     0.09000
H1157       H  0.17914037  0.88527265  0.59098177     0.13600
H1158       H  0.17224851  0.81039030  0.66219035    -0.00700
H1159       H  0.11066891  0.82451780  0.57937869     0.13900
H1160       H  0.10644942  0.88695286  0.65675705     0.13700
C1161       C  0.13447874  0.62325603  0.62348404     0.85400
C1162       C  0.12387526  0.65635463  0.61460992    -0.54800
C1163       C  0.13851978  0.67907932  0.63135394     0.08400
C1164       C  0.16226920  0.66690977  0.65611976     0.19300
C1165       C  0.17006789  0.62297464  0.61821261    -0.55500
C1166       C  0.18458646  0.64589729  0.63497532     0.08500
C1167       C  0.12956053  0.62187051  0.66220204    -0.55000
C1168       C  0.14466506  0.64424979  0.67910875     0.09000
H1169       H  0.10673938  0.66141274  0.59610487     0.13600
H1170       H  0.17412812  0.68547263  0.66981743    -0.00700
H1171       H  0.18276392  0.60506336  0.60389161     0.13900
H1172       H  0.11662425  0.60462152  0.67605558     0.13700
C1173       C  0.38067824  0.63351297  0.88471857     0.85400
C1174       C  0.38611285  0.66821987  0.89072180    -0.54800
C1175       C  0.36668548  0.68747789  0.87414937     0.08400
C1176       C  0.34364425  0.67050458  0.85257571     0.19300
C1177       C  0.34551557  0.62893539  0.89319765    -0.55500
C1178       C  0.32626933  0.64843409  0.87622515     0.08500
C1179       C  0.38340540  0.63026420  0.84612785    -0.55000
C1180       C  0.36368414  0.64920497  0.82971231     0.09000
H1181       H  0.40346081  0.67678164  0.90727417     0.13600
H1182       H  0.32798608  0.68614776  0.83874827    -0.00700
H1183       H  0.33674580  0.61103321  0.90983701     0.13900
H1184       H  0.39899942  0.61490698  0.83189254     0.13700
C1185       C  0.37083032  0.62527263  0.63034786     0.85400
C1186       C  0.33592479  0.61859189  0.63013450    -0.54800
C1187       C  0.31750045  0.63915704  0.64803905     0.08400
C1188       C  0.33565678  0.66438200  0.66561809     0.19300
C1189       C  0.37378346  0.65938778  0.61912023    -0.55500
C1190       C  0.35498802  0.67983939  0.63736228     0.08500
C1191       C  0.37786951  0.62666546  0.66789405    -0.55000
C1192       C  0.35945035  0.64691132  0.68609813     0.09000
H1193       H  0.32642319  0.59975460  0.61584362     0.13600
H1194       H  0.32091661  0.68068369  0.68111145    -0.00700
H1195       H  0.38951449  0.66664148  0.59883846     0.13900
H1196       H  0.39550527  0.61346207  0.68025206     0.13700
C1197       C  0.36982520  0.86818729  0.62423379     0.85400
C1198       C  0.37495687  0.83306852  0.61833209    -0.54800
C1199       C  0.35682088  0.81457522  0.63857861     0.08400
C1200       C  0.33354740  0.83335279  0.66157606     0.17400
C1201       C  0.33466950  0.87284492  0.61843036    -0.55500
C1202       C  0.31572270  0.85486103  0.63802614     0.08500
C1203       C  0.37280311  0.87303314  0.66209645    -0.55000
C1204       C  0.35378527  0.85506285  0.68167574     0.09000
H1205       H  0.39109457  0.82385825  0.59906380     0.13600
H1206       H  0.31807189  0.81907988  0.67787398    -0.00700
H1207       H  0.32496751  0.88737385  0.59938425     0.13900
H1208       H  0.38903547  0.88908763  0.67250738     0.13700
C1209       C  0.37093340  0.87554306  0.88197188     0.85400
C1210       C  0.33551345  0.88073093  0.88707246    -0.54800
C1211       C  0.31807921  0.85997137  0.87048970     0.08400
C1212       C  0.33759335  0.83576401  0.85015462     0.19300
C1213       C  0.37716279  0.84145576  0.89131684    -0.55500
C1214       C  0.35915395  0.82078229  0.87532973     0.08500
C1215       C  0.37642469  0.87546539  0.84334634    -0.55000
C1216       C  0.35890674  0.85476005  0.82676705     0.09000
H1217       H  0.32527486  0.90021545  0.90111180     0.13600
H1218       H  0.32341696  0.81890114  0.83662310    -0.00700
H1219       H  0.39434556  0.83429477  0.90899511     0.13900
H1220       H  0.39250480  0.88992248  0.82940457     0.13700
C1221       C  0.35792625  0.85393540  0.78952187    -0.07200
C1222       C  0.35361087  0.88205283  0.77278398    -0.18300
C1223       C  0.35136519  0.88315746  0.73799029     0.10000
C1224       C  0.35374441  0.85544620  0.71891722    -0.07100
C1225       C  0.35748769  0.82722508  0.73564752    -0.18300
C1226       C  0.35998418  0.82620004  0.77052190     0.10100
S1227       S  0.34425023  0.92064384  0.72000269    -0.33300
S1228       S  0.36801177  0.78912537  0.78882758    -0.33300
H1229       H  0.38975579  0.80095522  0.81064113     0.28100
H1230       H  0.32740533  0.90952049  0.69336407     0.28100
H1231       H  0.35125188  0.90342019  0.78708887     0.18700
H1232       H  0.35975459  0.80587875  0.72128471     0.18700
C1233       C  0.35773924  0.77979044  0.63718491    -0.07200
C1234       C  0.32950060  0.76424683  0.64056333    -0.18300
C1235       C  0.32769067  0.73218255  0.63700056     0.10000
C1236       C  0.35522709  0.71412200  0.63325202    -0.07100
C1237       C  0.38381826  0.72924814  0.63062582    -0.18300
C1238       C  0.38545967  0.76173190  0.63255907     0.10100
S1239       S  0.28972264  0.71534909  0.63471451    -0.33300
S1240       S  0.42330755  0.77882890  0.63366233    -0.33300
H1241       H  0.44066719  0.75258739  0.62255302     0.28100
H1242       H  0.27225718  0.74096964  0.64727457     0.28100
H1243       H  0.30840089  0.77707640  0.64598996     0.18700
H1244       H  0.40505404  0.71544495  0.62904830     0.18700
C1245       C  0.36114552  0.64845526  0.79311754    -0.07200
C1246       C  0.36427363  0.67624897  0.77547504    -0.18300
C1247       C  0.36429950  0.67655934  0.74050162     0.10000
C1248       C  0.36042846  0.64859276  0.72288973    -0.07100
C1249       C  0.35681190  0.62093967  0.74065224    -0.18300
C1250       C  0.35666670  0.62055870  0.77547327     0.10100
S1251       S  0.37151448  0.71277936  0.71985972    -0.33300
S1252       S  0.34961242  0.58384705  0.79552048    -0.33300
H1253       H  0.33439829  0.59596766  0.82459591     0.28100
H1254       H  0.39126850  0.69949261  0.69460397     0.28100
H1255       H  0.36793132  0.69764251  0.78896705     0.18700
H1256       H  0.35330405  0.59948169  0.72722177     0.18700
C1257       C  0.36635410  0.72162503  0.87762345    -0.07200
C1258       C  0.33767183  0.73647049  0.88488862    -0.18300
C1259       C  0.33498630  0.76877490  0.88616058     0.10000
C1260       C  0.36158491  0.78677434  0.87973154    -0.07100
C1261       C  0.39062543  0.77194576  0.87415152    -0.18300
C1262       C  0.39327870  0.73952552  0.87260203     0.10100
S1263       S  0.29764392  0.78660506  0.89697289    -0.33300
S1264       S  0.43044461  0.72158254  0.86108550    -0.33300
H1265       H  0.44793914  0.74878174  0.86093588     0.28100
H1266       H  0.28096409  0.75915238  0.90165608     0.28100
H1267       H  0.31723509  0.72258141  0.88934501     0.18700
H1268       H  0.41091082  0.78587966  0.86901407     0.18700
C1269       C  0.21877283  0.64661447  0.63744075    -0.07200
C1270       C  0.23096204  0.64740889  0.66950175    -0.18300
C1271       C  0.26283971  0.64373269  0.67389907     0.10000
C1272       C  0.28328681  0.63996707  0.64561119    -0.07100
C1273       C  0.27114631  0.63990028  0.61349938    -0.18300
C1274       C  0.23930336  0.64363066  0.60909291     0.10100
S1275       S  0.27566954  0.64207725  0.71618953    -0.33300
S1276       S  0.22667374  0.64609852  0.56669912    -0.33300
H1277       H  0.20120339  0.66607158  0.57429477     0.28100
H1278       H  0.29829182  0.61889158  0.70902220     0.28100
H1279       H  0.21543605  0.64942882  0.69146865     0.18700
H1280       H  0.28675720  0.63819298  0.59155297     0.18700
C1281       C  0.13650131  0.77739487  0.61737810    -0.07200
C1282       C  0.11899986  0.76403737  0.64358609    -0.18300
C1283       C  0.11641926  0.73202223  0.64655520     0.10000
C1284       C  0.13395772  0.71248423  0.62441098    -0.07100
C1285       C  0.14954063  0.72556548  0.59645513    -0.18300
C1286       C  0.15010955  0.75784122  0.59202184     0.10100
S1287       S  0.08903168  0.71794311  0.67790293    -0.33300
S1288       S  0.16834684  0.77191884  0.55363498    -0.33300
H1289       H  0.17200479  0.80283404  0.56330891     0.28100
H1290       H  0.08534498  0.68848992  0.66369519     0.28100
H1291       H  0.10673474  0.77875915  0.66162480     0.18700
H1292       H  0.16180491  0.71058483  0.57832239     0.18700
C1293       C  0.21602262  0.84979334  0.62978341    -0.07200
C1294       C  0.22956865  0.87819062  0.63762269    -0.18300
C1295       C  0.26192099  0.88072765  0.64036758     0.10000
C1296       C  0.28132636  0.85435241  0.63477562    -0.07100
C1297       C  0.26783967  0.82663952  0.62517633    -0.18300
C1298       C  0.23557617  0.82364463  0.62389236     0.10100
S1299       S  0.27802181  0.91768950  0.65068207    -0.33300
S1300       S  0.22020482  0.78633627  0.61409330    -0.33300
H1301       H  0.24825423  0.77249283  0.60188775     0.28100
H1302       H  0.24982670  0.93466426  0.65236698     0.28100
H1303       H  0.21462231  0.89835091  0.64190935     0.18700
H1304       H  0.28270084  0.80753870  0.61734136     0.18700
C1305       C  0.14354218  0.86238200  0.77112251    -0.07200
C1306       C  0.12094113  0.84266786  0.75920959    -0.18300
C1307       C  0.11735180  0.83849043  0.72495454     0.10000
C1308       C  0.13788645  0.85325766  0.70202297    -0.07100
C1309       C  0.15891847  0.87478230  0.71390018    -0.18300
C1310       C  0.16078820  0.88072923  0.74819993     0.10100
S1311       S  0.08565780  0.81485903  0.71276478    -0.33300
S1312       S  0.18296824  0.91381425  0.76025329    -0.33300
H1313       H  0.17249826  0.91571516  0.79392625     0.28100
H1314       H  0.08146853  0.82886432  0.68160555     0.28100
H1315       H  0.10588529  0.83043843  0.77687915     0.18700
H1316       H  0.17313589  0.88786960  0.69620091     0.18700
C1317       C  0.28390064  0.86306394  0.86711118    -0.07200
C1318       C  0.27310099  0.86119602  0.83467862    -0.18300
C1319       C  0.24144436  0.86274861  0.82833852     0.10000
C1320       C  0.21922306  0.86703972  0.85539031    -0.07100
C1321       C  0.23027736  0.86974168  0.88804219    -0.18300
C1322       C  0.26213219  0.86742390  0.89424335     0.10100
S1323       S  0.23123639  0.86040775  0.78505285    -0.33300
S1324       S  0.27301793  0.86854131  0.93735142    -0.33300
H1325       H  0.29897688  0.84854434  0.93316850     0.28100
H1326       H  0.26059497  0.85177344  0.77089585     0.28100
H1327       H  0.28987327  0.85879938  0.81386486     0.18700
H1328       H  0.21389531  0.87223275  0.90923656     0.18700
C1329       C  0.14867648  0.64651536  0.78694786    -0.07200
C1330       C  0.16036028  0.62058833  0.76895709    -0.18300
C1331       C  0.15964175  0.61916742  0.73390878     0.10000
C1332       C  0.14688868  0.64436090  0.71618608    -0.07100
C1333       C  0.13457180  0.66980170  0.73439734    -0.18300
C1334       C  0.13358744  0.67030495  0.76942539     0.10100
S1335       S  0.17582140  0.58472172  0.71370530    -0.33300
S1336       S  0.10945933  0.69986253  0.78985125    -0.33300
H1337       H  0.10057586  0.68222419  0.81793450     0.28100
H1338       H  0.18644336  0.59898822  0.68410439     0.28100
H1339       H  0.17008153  0.60121796  0.78226480     0.18700
H1340       H  0.12421421  0.68880515  0.72140207     0.18700
C1341       C  0.22638304  0.64393062  0.86949940    -0.07200
C1342       C  0.23930512  0.64978201  0.90071069    -0.18300
C1343       C  0.27170132  0.65110958  0.90400890     0.10000
C1344       C  0.29184600  0.64597268  0.87563743    -0.07100
C1345       C  0.27890908  0.63992922  0.84464360    -0.18300
C1346       C  0.24675812  0.63833502  0.84143299     0.10100
S1347       S  0.28570677  0.66121161  0.94449541    -0.33300
S1348       S  0.23326692  0.62708336  0.80128501    -0.33300
H1349       H  0.21160202  0.60658514  0.81566688     0.28100
H1350       H  0.31215171  0.67698294  0.93250045     0.28100
H1351       H  0.22403797  0.65459237  0.92242593     0.18700
H1352       H  0.29404607  0.63600275  0.82264048     0.18700
C1353       C  0.15827639  0.72440631  0.86185716    -0.07200
C1354       C  0.16167773  0.73752470  0.83001458    -0.18300
C1355       C  0.15791426  0.76936932  0.82501193     0.10000
C1356       C  0.15226747  0.78931831  0.85302933    -0.07100
C1357       C  0.15152477  0.77632440  0.88526751    -0.18300
C1358       C  0.15494725  0.74436810  0.88999949     0.10100
S1359       S  0.15818207  0.78289371  0.78234930    -0.33300
S1360       S  0.15739020  0.73097084  0.93250522    -0.33300
H1361       H  0.17767997  0.70588187  0.92448617     0.28100
H1362       H  0.16084757  0.75403011  0.76592890     0.28100
H1363       H  0.16593400  0.72256406  0.80853884     0.18700
H1364       H  0.14897613  0.79128385  0.90711341     0.18700
C1365       C  0.11393654  0.62085451  0.90483445    -0.07200
C1366       C  0.09122800  0.63534189  0.92662360    -0.18300
C1367       C  0.06860385  0.61833526  0.94453241     0.10000
C1368       C  0.06864193  0.58579698  0.94168480    -0.07100
C1369       C  0.09147189  0.57123796  0.92070854    -0.18300
C1370       C  0.11388604  0.58799828  0.90248351     0.10100
S1371       S  0.03954453  0.63970876  0.96937252    -0.33300
S1372       S  0.14215047  0.56651772  0.87618902    -0.33300
H1373       H  0.13094313  0.53663759  0.88244232     0.28100
H1374       H  0.01520124  0.61976424  0.46216225     0.28100
H1375       H  0.08999052  0.66007044  0.92969672     0.18700
H1376       H  0.09215823  0.54623146  0.91903353     0.18700
C1377       C  0.07459676  0.93621861  0.55748637    -0.07200
C1378       C  0.06040290  0.91040446  0.57219481    -0.18300
C1379       C  0.07778018  0.88748935  0.58826377     0.10000
C1380       C  0.11071719  0.88983365  0.58923397    -0.07100
C1381       C  0.12443794  0.91661890  0.57543149    -0.18300
C1382       C  0.10689102  0.93967112  0.55993959     0.10100
S1383       S  0.05690388  0.85616724  0.60838557    -0.33300
S1384       S  0.12591271  0.97422881  0.54490143    -0.33300
H1385       H  0.15503767  0.96836661  0.55849397     0.28100
H1386       H  0.02840684  0.86127155  0.59316239     0.28100
H1387       H  0.03551487  0.90795944  0.57064568     0.18700
H1388       H  0.14879504  0.92069234  0.57749127     0.18700
C1389       C  0.38969209  0.60166621  0.60842860    -0.07200
C1390       C  0.41056481  0.58033283  0.62270869    -0.18300
C1391       C  0.42728418  0.55825345  0.60342067     0.10000
C1392       C  0.42417979  0.55735215  0.56854838    -0.07100
C1393       C  0.40208239  0.57684052  0.55420831    -0.18300
C1394       C  0.38479245  0.59878239  0.57354951     0.10100
S1395       S  0.45150772  0.53109142  0.62512201    -0.33300
S1396       S  0.35680643  0.62292213  0.55280700    -0.33300
H1397       H  0.35496728  0.60436102  0.52392484     0.28100
H1398       H  0.44675154  0.50616100  0.60316399     0.28100
H1399       H  0.41394071  0.57947184  0.64914345     0.18700
H1400       H  0.39921347  0.57576275  0.52745668     0.18700
C1401       C  0.08693016  0.55484645  0.56316865    -0.07200
C1402       C  0.10598509  0.57698069  0.54769824    -0.18300
C1403       C  0.12215104  0.59851204  0.56653455     0.10000
C1404       C  0.11922952  0.59821558  0.60221599    -0.07100
C1405       C  0.10181114  0.57419419  0.61730674    -0.18300
C1406       C  0.08598860  0.55268984  0.59833215     0.10100
S1407       S  0.14545879  0.62678910  0.54412159    -0.33300
S1408       S  0.06498849  0.52286075  0.62057260    -0.33300
H1409       H  0.06855422  0.50060040  0.59484075     0.28100
H1410       H  0.13936552  0.61710502  0.51138923     0.28100
H1411       H  0.10677486  0.57852758  0.52063226     0.18700
H1412       H  0.09992921  0.57145690  0.64401370     0.18700
C1413       C  0.38925658  0.89894161  0.90241712    -0.07200
C1414       C  0.40663495  0.92260886  0.88646380    -0.18300
C1415       C  0.42279120  0.94446070  0.90465284     0.10000
C1416       C  0.42279539  0.94255724  0.93969902    -0.07100
C1417       C  0.40525554  0.91982604  0.95604381    -0.18300
C1418       C  0.38792753  0.89857557  0.93812202     0.10100
S1419       S  0.44234930  0.97471088  0.88171195    -0.33300
S1420       S  0.36366344  0.87188260  0.96169277    -0.33300
H1421       H  0.37245710  0.88049452  0.99393424     0.28100
H1422       H  0.43647841  0.99782661  0.90613973     0.28100
H1423       H  0.40704412  0.92562346  0.85976514     0.18700
H1424       H  0.40495617  0.91899474  0.98313085     0.18700
C1425       C  0.40263100  0.61279506  0.90493910    -0.07200
C1426       C  0.42359705  0.59112745  0.88903134    -0.18300
C1427       C  0.44547057  0.57423115  0.90679864     0.10000
C1428       C  0.44613441  0.57753583  0.94181429    -0.07100
C1429       C  0.42559003  0.59891675  0.95792739    -0.18300
C1430       C  0.40384464  0.61618474  0.94024725     0.10100
S1431       S  0.47303304  0.55013114  0.88290846    -0.33300
S1432       S  0.37743071  0.64190878  0.96380955    -0.33300
H1433       H  0.39537385  0.64413495  0.99234182     0.28100
H1434       H  0.49768997  0.55429497  0.90442063     0.28100
H1435       H  0.42398396  0.58688111  0.86253217     0.18700
H1436       H  0.42580917  0.60138944  0.98486095     0.18700
C1437       C  0.05814656  0.92437433  0.92939453    -0.07200
C1438       C  0.08355502  0.90945633  0.94363801    -0.18300
C1439       C  0.10642141  0.89348069  0.92371137     0.10000
C1440       C  0.10444123  0.89297708  0.88820431    -0.07100
C1441       C  0.07736438  0.90632920  0.87478074    -0.18300
C1442       C  0.05467352  0.92191659  0.89474599     0.10100
S1443       S  0.13756624  0.87365814  0.94442165    -0.33300
S1444       S  0.02113302  0.93742863  0.87460357    -0.33300
H1445       H  0.00033715  0.93346198  0.90227322     0.28100
H1446       H  0.12722147  0.88025378  0.97760642     0.28100
H1447       H  0.08596529  0.91121256  0.97046009     0.18700
H1448       H  0.07236985  0.90400016  0.84876249     0.18700
C1449       C  0.43415543  0.92529287  0.56379317    -0.07200
C1450       C  0.44537120  0.90073735  0.58286594    -0.18300
C1451       C  0.42543432  0.88331246  0.60380956     0.10000
C1452       C  0.39268889  0.88854698  0.60372679    -0.07100
C1453       C  0.38193092  0.91441229  0.58580810    -0.18300
C1454       C  0.40213598  0.93296299  0.56668297     0.10100
S1455       S  0.44271470  0.85543937  0.63133675    -0.33300
S1456       S  0.38522542  0.96560309  0.54586768    -0.33300
H1457       H  0.40228955  0.98708841  0.56393038     0.28100
H1458       H  0.47402536  0.86212172  0.62363872     0.28100
H1459       H  0.47007794  0.89549080  0.58167396     0.18700
H1460       H  0.35781568  0.92150201  0.58725092     0.18700
O1461       O  0.96800046  0.45551665  0.46735233    -0.81200
O1462       O  0.53832691  0.06927911  0.48926294    -0.81200
O1463       O  0.96973253  0.02882346  0.45313312    -0.81200
O1464       O  0.53714735  0.47359544  0.44639550    -0.81200
O1465       O  0.97666741  0.06715043  0.48889594    -0.81300
O1466       O  0.52797759  0.43691059  0.48220037    -0.81200
O1467       O  0.54189698  0.03546247  0.44820487    -0.81200
O1468       O  0.92510137  0.48419594  0.47565786    -0.81200
C1469       C  0.93893647  0.46108168  0.46193335     1.08500
C1470       C  0.54694987  0.06222006  0.45927839     1.08400
C1471       C  0.96691108  0.05728770  0.46107146     1.08500
C1472       C  0.53862621  0.44534170  0.45376551     1.08400
O1473       O  0.52419881  0.46122180  0.04702948    -0.81200
O1474       O  0.97638526  0.03678637  0.05361191    -0.81300
O1475       O  0.95231750  0.47293115  0.03178015    -0.81200
O1476       O  0.57464050  0.03125949  0.01096901    -0.81200
O1477       O  0.53854894  0.03853465  0.05090253    -0.81200
O1478       O  0.97807396  0.42832534  0.02504431    -0.81200
O1479       O  0.56429410  0.46698405  0.01137174    -0.81100
O1480       O  0.93954995  0.03166538  0.01897857    -0.81200
Co1481     Co  0.49528297  0.46192013  0.00985307     1.51500
Co1482     Co  0.00842209  0.04929592  0.51982971     1.51700
Co1483     Co  0.96261738  0.49898859  0.49217353     1.51600
Co1484     Co  0.55292405  0.00348396  0.97855985     1.51500
O1485       O  0.50872004  0.50750296  0.50031028    -1.43100
C1486       C  0.55279609  0.45668704  0.03895656     1.08400
C1487       C  0.94828177  0.04072129  0.04712767     1.08500
C1488       C  0.95541719  0.44369947  0.03842529     1.08500
C1489       C  0.56668299  0.03915791  0.04093004     1.08400
C1490       C  0.63623548  0.13846236  0.38243568     0.85400
C1491       C  0.67068514  0.13018801  0.38797993    -0.54800
C1492       C  0.69148957  0.14494539  0.36704258     0.08400
C1493       C  0.67577089  0.16733416  0.34269787     0.19300
C1494       C  0.63490154  0.17424883  0.38611201    -0.55500
C1495       C  0.65604039  0.18935149  0.36573687     0.08500
C1496       C  0.63156752  0.13313089  0.34494181    -0.55000
C1497       C  0.65184406  0.14811967  0.32416004     0.09000
H1498       H  0.67793150  0.11427391  0.40721385     0.13600
H1499       H  0.69258344  0.17940021  0.32579194    -0.00700
H1500       H  0.61830925  0.18712818  0.40194894     0.13900
H1501       H  0.61306738  0.11912050  0.33551086     0.13700
C1502       C  0.62550514  0.37464269  0.36514929     0.85400
C1503       C  0.62417342  0.33927530  0.36941450    -0.54800
C1504       C  0.64566338  0.32276984  0.35016859     0.08400
C1505       C  0.66620971  0.34330145  0.32744603     0.19300
C1506       C  0.65982957  0.38273489  0.37088217    -0.55500
C1507       C  0.68135295  0.36622230  0.35120566     0.08500
C1508       C  0.62226177  0.37927144  0.32714189    -0.55000
C1509       C  0.64341363  0.36316698  0.30767676     0.09000
H1510       H  0.60781186  0.32824024  0.38676948     0.13600
H1511       H  0.68314294  0.32947533  0.31200291    -0.00700
H1512       H  0.66639125  0.39976156  0.38927259     0.13900
H1513       H  0.60474017  0.39291243  0.31515418     0.13700
C1514       C  0.62867150  0.36474258  0.10800629     0.85400
C1515       C  0.66462190  0.36778653  0.10550259    -0.54800
C1516       C  0.68038517  0.34793940  0.12558250     0.08400
C1517       C  0.65892523  0.32631028  0.14595417     0.19300
C1518       C  0.62381156  0.33020863  0.09962892    -0.55500
C1519       C  0.63942123  0.31011779  0.11960140     0.08500
C1520       C  0.62062036  0.36820562  0.14555179    -0.55000
C1521       C  0.63616045  0.34834490  0.16527876     0.09000
H1522       H  0.67733248  0.38359359  0.08940553     0.13600
H1523       H  0.67143547  0.31025778  0.16256891    -0.00700
H1524       H  0.60910498  0.32231420  0.07997747     0.13900
H1525       H  0.60509161  0.38624568  0.15592441     0.13700
C1526       C  0.63718149  0.12142264  0.12377781     0.85400
C1527       C  0.62662360  0.15449278  0.11470690    -0.54800
C1528       C  0.64097653  0.17730638  0.13161591     0.08400
C1529       C  0.66455873  0.16521825  0.15658530     0.19300
C1530       C  0.67281843  0.12117233  0.11888064    -0.55500
C1531       C  0.68704886  0.14421872  0.13571661     0.08500
C1532       C  0.63203632  0.12000853  0.16247396    -0.55000
C1533       C  0.64689937  0.14252954  0.17943743     0.09000
H1534       H  0.60963257  0.15945163  0.09601835     0.13600
H1535       H  0.67629326  0.18380795  0.17037285    -0.00700
H1536       H  0.68575145  0.10337598  0.10462039     0.13900
H1537       H  0.61936300  0.10252263  0.17625469     0.13700
C1538       C  0.88089457  0.13440719  0.38497792     0.85400
C1539       C  0.88484186  0.16934174  0.39144256    -0.54800
C1540       C  0.86469903  0.18801306  0.37492332     0.08400
C1541       C  0.84233069  0.17023469  0.35336262     0.19300
C1542       C  0.84597545  0.12838683  0.39352416    -0.55500
C1543       C  0.82590098  0.14735539  0.37691545     0.08500
C1544       C  0.88345534  0.13155628  0.34630869    -0.55000
C1545       C  0.86304908  0.14995608  0.33018983     0.09000
H1546       H  0.90187393  0.17840070  0.40805860     0.13600
H1547       H  0.82610809  0.18534835  0.33962471    -0.00700
H1548       H  0.83800554  0.10996992  0.40993887     0.13900
H1549       H  0.89931242  0.11673248  0.33176446     0.13700
C1550       C  0.87343007  0.12822953  0.13049317     0.85400
C1551       C  0.83869642  0.12063023  0.13051760    -0.54800
C1552       C  0.81985845  0.14092585  0.14825658     0.08400
C1553       C  0.83738382  0.16666180  0.16572107     0.19300
C1554       C  0.87543852  0.16233466  0.11907802    -0.55500
C1555       C  0.85636090  0.18248483  0.13740211     0.08500
C1556       C  0.88017914  0.12965135  0.16815503    -0.55000
C1557       C  0.86143682  0.14968873  0.18630226     0.09000
H1558       H  0.82954385  0.10132201  0.11668486     0.13600
H1559       H  0.82219870  0.18256220  0.18122473    -0.00700
H1560       H  0.89081871  0.16980174  0.09858579     0.13900
H1561       H  0.89682905  0.11552129  0.18089456     0.13700
C1562       C  0.86829342  0.37138742  0.12253836     0.85400
C1563       C  0.87396344  0.33630611  0.11670734    -0.54800
C1564       C  0.85598224  0.31753603  0.13682985     0.08400
C1565       C  0.83241581  0.33601544  0.15973076     0.17400
C1566       C  0.83302730  0.37563666  0.11673847    -0.55500
C1567       C  0.81434198  0.35725926  0.13622594     0.08500
C1568       C  0.87103090  0.37628718  0.16043355    -0.55000
C1569       C  0.85222513  0.35802566  0.17992242     0.09000
H1570       H  0.89042877  0.32734936  0.09762244     0.13600
H1571       H  0.81707777  0.32154366  0.17595745    -0.00700
H1572       H  0.82300693  0.39031970  0.09805366     0.13900
H1573       H  0.88704736  0.39251150  0.17091869     0.13700
C1574       C  0.86827713  0.37606033  0.38055984     0.85400
C1575       C  0.83291086  0.38212820  0.38514983    -0.54800
C1576       C  0.81518159  0.36195811  0.36806064     0.08400
C1577       C  0.83435410  0.33753854  0.34766712     0.19300
C1578       C  0.87339789  0.34176694  0.38958105    -0.55500
C1579       C  0.85521006  0.32168216  0.37296982     0.08500
C1580       C  0.87425876  0.37632091  0.34201760    -0.55000
C1581       C  0.85644132  0.35627807  0.32491865     0.09000
H1582       H  0.82294557  0.40154027  0.39952095     0.13600
H1583       H  0.81997087  0.32130664  0.33355478    -0.00700
H1584       H  0.89013452  0.33402803  0.40748796     0.13900
H1585       H  0.89070414  0.39064468  0.32843739     0.13700
C1586       C  0.85588672  0.35589087  0.28769764    -0.07200
C1587       C  0.85262360  0.38428552  0.27122637    -0.18300
C1588       C  0.85053803  0.38578706  0.23644905     0.10000
C1589       C  0.85209792  0.35818193  0.21714659    -0.07100
C1590       C  0.85483996  0.32971328  0.23364012    -0.18300
C1591       C  0.85714257  0.32828705  0.26848399     0.10100
S1592       S  0.84455460  0.42364640  0.21885473    -0.33300
S1593       S  0.86391661  0.29080585  0.28646850    -0.33300
H1594       H  0.88579291  0.30168012  0.30870485     0.28100
H1595       H  0.82701902  0.41339862  0.19231429     0.28100
H1596       H  0.85087382  0.40557139  0.28573073     0.18700
H1597       H  0.85650174  0.30842445  0.21912809     0.18700
C1598       C  0.85745075  0.28269550  0.13571669    -0.07200
C1599       C  0.82947797  0.26669339  0.13953386    -0.18300
C1600       C  0.82819669  0.23449985  0.13690934     0.10000
C1601       C  0.85598122  0.21682050  0.13314183    -0.07100
C1602       C  0.88430655  0.23243314  0.13005307    -0.18300
C1603       C  0.88544804  0.26500878  0.13146422     0.10100
S1604       S  0.79042597  0.21707152  0.13588913    -0.33300
S1605       S  0.92299218  0.28287240  0.13217873    -0.33300
H1606       H  0.94128003  0.25590750  0.12662547     0.28100
H1607       H  0.77348292  0.24156406  0.15169496     0.28100
H1608       H  0.80816726  0.27919950  0.14463766     0.18700
H1609       H  0.90572590  0.21894304  0.12839156     0.18700
C1610       C  0.86071651  0.14976684  0.29353133    -0.07200
C1611       C  0.86330369  0.17790644  0.27642455    -0.18300
C1612       C  0.86405558  0.17870406  0.24141920     0.10000
C1613       C  0.86158778  0.15083823  0.22320780    -0.07100
C1614       C  0.85834033  0.12284538  0.24046058    -0.18300
C1615       C  0.85730998  0.12202559  0.27529992     0.10100
S1616       S  0.87028123  0.21550061  0.22156258    -0.33300
S1617       S  0.85046924  0.08499662  0.29469752    -0.33300
H1618       H  0.83413913  0.09670938  0.32332431     0.28100
H1619       H  0.89033831  0.20335485  0.19591207     0.28100
H1620       H  0.86602679  0.19921973  0.29038270     0.18700
H1621       H  0.85574204  0.10145284  0.22661152     0.18700
C1622       C  0.86352950  0.22232853  0.37731497    -0.07200
C1623       C  0.83424551  0.23686441  0.38179355    -0.18300
C1624       C  0.83085315  0.26915571  0.38131710     0.10000
C1625       C  0.85746648  0.28754367  0.37678078    -0.07100
C1626       C  0.88689708  0.27306814  0.37342847    -0.18300
C1627       C  0.89021369  0.24069345  0.37296332     0.10100
S1628       S  0.79253800  0.28636114  0.38791802    -0.33300
S1629       S  0.92813552  0.22338221  0.36370098    -0.33300
H1630       H  0.94462116  0.25109472  0.36043005     0.28100
H1631       H  0.77570013  0.25898962  0.38442362     0.28100
H1632       H  0.81387775  0.22274264  0.38560752     0.18700
H1633       H  0.90717750  0.28724816  0.36938235     0.18700
C1634       C  0.72112459  0.14540063  0.13821511    -0.07200
C1635       C  0.73331909  0.14499338  0.17027069    -0.18300
C1636       C  0.76530700  0.14237243  0.17440689     0.10000
C1637       C  0.78572313  0.14081124  0.14593142    -0.07100
C1638       C  0.77354833  0.14182555  0.11388321    -0.18300
C1639       C  0.74160347  0.14455578  0.10972028     0.10100
S1640       S  0.77849070  0.13928037  0.21643409    -0.33300
S1641       S  0.72874590  0.14854141  0.06755860    -0.33300
H1642       H  0.70213040  0.16655821  0.07622233     0.28100
H1643       H  0.80147238  0.11680831  0.20785868     0.28100
H1644       H  0.71778225  0.14547301  0.19230376     0.18700
H1645       H  0.78917173  0.14172385  0.09189960     0.18700
C1646       C  0.63637506  0.27587153  0.11804914    -0.07200
C1647       C  0.61844744  0.26181895  0.14351746    -0.18300
C1648       C  0.61696620  0.22965083  0.14633677     0.10000
C1649       C  0.63597872  0.21074845  0.12491440    -0.07100
C1650       C  0.65204564  0.22445286  0.09765909    -0.18300
C1651       C  0.65151040  0.25675192  0.09323873     0.10100
S1652       S  0.58907803  0.21439121  0.17646304    -0.33300
S1653       S  0.66997841  0.27140624  0.05524203    -0.33300
H1654       H  0.67231313  0.30247054  0.06496524     0.28100
H1655       H  0.58548757  0.18571960  0.16044139     0.28100
H1656       H  0.60486630  0.27604767  0.16093077     0.18700
H1657       H  0.66531449  0.20994880  0.07988609     0.18700
C1658       C  0.71471138  0.34970331  0.12911085    -0.07200
C1659       C  0.72759707  0.37845577  0.13689367    -0.18300
C1660       C  0.75989768  0.38177092  0.13954968     0.10000
C1661       C  0.77995582  0.35604134  0.13311846    -0.07100
C1662       C  0.76709565  0.32797739  0.12366635    -0.18300
C1663       C  0.73489145  0.32399897  0.12336415     0.10100
S1664       S  0.77508541  0.41873185  0.15136759    -0.33300
S1665       S  0.72041803  0.28587910  0.11577592    -0.33300
H1666       H  0.74890635  0.27181840  0.10534535     0.28100
H1667       H  0.74652918  0.43509121  0.15312707     0.28100
H1668       H  0.71216334  0.39820589  0.14146695     0.18700
H1669       H  0.78236542  0.30931841  0.11554992     0.18700
C1670       C  0.64070108  0.36177430  0.27108337    -0.07200
C1671       C  0.61915670  0.34120732  0.25862969    -0.18300
C1672       C  0.61602832  0.33733099  0.22427571     0.10000
C1673       C  0.63616008  0.35310804  0.20180345    -0.07100
C1674       C  0.65569978  0.37578245  0.21419738    -0.18300
C1675       C  0.65685308  0.38152046  0.24862817     0.10100
S1676       S  0.58507822  0.31312439  0.21133106    -0.33300
S1677       S  0.67653278  0.41601813  0.26139147    -0.33300
H1678       H  0.66858976  0.41520400  0.29576132     0.28100
H1679       H  0.58068931  0.32759619  0.18045436     0.28100
H1680       H  0.60444079  0.32820868  0.27594215     0.18700
H1681       H  0.66928534  0.38982436  0.19682774     0.18700
C1682       C  0.78094049  0.36520221  0.36514419    -0.07200
C1683       C  0.76964597  0.36398949  0.33288530    -0.18300
C1684       C  0.73780105  0.36486933  0.32724553     0.10000
C1685       C  0.71594534  0.36789022  0.35481309    -0.07100
C1686       C  0.72749567  0.37022986  0.38725370    -0.18300
C1687       C  0.75951831  0.36841739  0.39274482     0.10100
S1688       S  0.72676015  0.36321661  0.28422093    -0.33300
S1689       S  0.77119595  0.36822901  0.43555558    -0.33300
H1690       H  0.79626641  0.34728884  0.43009811     0.28100
H1691       H  0.75571129  0.35380846  0.26961683     0.28100
H1692       H  0.78613951  0.36241046  0.31172346     0.18700
H1693       H  0.71140946  0.37181011  0.40879143     0.18700
C1694       C  0.64949991  0.14659921  0.28722333    -0.07200
C1695       C  0.66108697  0.12021468  0.26997153    -0.18300
C1696       C  0.66093428  0.11816618  0.23494559     0.10000
C1697       C  0.64863004  0.14312024  0.21651196    -0.07100
C1698       C  0.63640359  0.16903339  0.23395555    -0.18300
C1699       C  0.63491096  0.17020742  0.26895271     0.10100
S1700       S  0.67731197  0.08330655  0.21578398    -0.33300
S1701       S  0.61050261  0.20020569  0.28817253    -0.33300
H1702       H  0.60241729  0.18401638  0.31751529     0.28100
H1703       H  0.68767744  0.09670934  0.18558909     0.28100
H1704       H  0.67021739  0.10092562  0.28388143     0.18700
H1705       H  0.62647907  0.18791095  0.22032882     0.18700
C1706       C  0.72603679  0.14228337  0.37001546    -0.07200
C1707       C  0.73899006  0.14473050  0.40176932    -0.18300
C1708       C  0.77140382  0.14576058  0.40524789     0.10000
C1709       C  0.79153829  0.14393765  0.37642565    -0.07100
C1710       C  0.77856643  0.14073251  0.34498197    -0.18300
C1711       C  0.74648120  0.13941649  0.34155736     0.10100
S1712       S  0.78540226  0.15128737  0.44672679    -0.33300
S1713       S  0.73330680  0.13164442  0.30037871    -0.33300
H1714       H  0.71370349  0.10825880  0.31256879     0.28100
H1715       H  0.81061487  0.16985696  0.43680860     0.28100
H1716       H  0.72375622  0.14721880  0.42392433     0.18700
H1717       H  0.79366547  0.13886256  0.32265704     0.18700
C1718       C  0.65750825  0.22380701  0.36328056    -0.07200
C1719       C  0.66095211  0.23677054  0.33133128    -0.18300
C1720       C  0.65642886  0.26845737  0.32593182     0.10000
C1721       C  0.65041190  0.28856725  0.35365743    -0.07100
C1722       C  0.64981529  0.27588895  0.38607311    -0.18300
C1723       C  0.65359526  0.24398569  0.39119642     0.10100
S1724       S  0.65587177  0.28156886  0.28315890    -0.33300
S1725       S  0.65554668  0.23097773  0.43388437    -0.33300
H1726       H  0.67585392  0.20577794  0.42643600     0.28100
H1727       H  0.66024195  0.25273000  0.26699682     0.28100
H1728       H  0.66570056  0.22177441  0.31000441     0.18700
H1729       H  0.64689988  0.29104248  0.40773020     0.18700
C1730       C  0.61318461  0.11900184  0.40374394    -0.07200
C1731       C  0.59068762  0.13283344  0.42618975    -0.18300
C1732       C  0.56796938  0.11537223  0.44337541     0.10000
C1733       C  0.56759205  0.08294123  0.43907500    -0.07100
C1734       C  0.59004055  0.06898972  0.41712427    -0.18300
C1735       C  0.61268011  0.08625138  0.39972544     0.10100
S1736       S  0.53945602  0.13612832  0.46953656    -0.33300
S1737       S  0.64092802  0.06551509  0.37270189    -0.33300
H1738       H  0.62715036  0.03626020  0.37437026     0.28100
H1739       H  0.51656840  0.12086546  0.96100597     0.28100
H1740       H  0.58985980  0.15743081  0.43049803     0.18700
H1741       H  0.59050184  0.04405700  0.41433181     0.18700
C1742       C  0.57208908  0.43529219  0.05872163    -0.07200
C1743       C  0.55815266  0.40928171  0.07327599    -0.18300
C1744       C  0.57582410  0.38602023  0.08847648     0.10000
C1745       C  0.60884118  0.38815224  0.08861996    -0.07100
C1746       C  0.62236724  0.41500366  0.07471025    -0.18300
C1747       C  0.60454668  0.43840398  0.06011429     0.10100
S1748       S  0.55527679  0.35450507  0.10864746    -0.33300
S1749       S  0.62346054  0.47304286  0.04504644    -0.33300
H1750       H  0.65375060  0.46530414  0.05437819     0.28100
H1751       H  0.52518592  0.36279645  0.09910722     0.28100
H1752       H  0.53321327  0.40695964  0.07223080     0.18700
H1753       H  0.64679729  0.41895568  0.07623404     0.18700
C1754       C  0.89312861  0.10521316  0.10854975    -0.07200
C1755       C  0.91757940  0.08767624  0.12206795    -0.18300
C1756       C  0.93394320  0.06475430  0.10363367     0.10000
C1757       C  0.92744994  0.05970547  0.06977454    -0.07100
C1758       C  0.90317623  0.07679480  0.05590522    -0.18300
C1759       C  0.88623509  0.09952670  0.07453913     0.10100
S1760       S  0.96241899  0.04228008  0.12542163    -0.33300
S1761       S  0.85652689  0.12151150  0.05379330    -0.33300
H1762       H  0.85504511  0.10228215  0.02538165     0.28100
H1763       H  0.95575325  0.01420489  0.10937904     0.28100
H1764       H  0.92477856  0.09110772  0.14718692     0.18700
H1765       H  0.89824694  0.07322116  0.02984468     0.18700
C1766       C  0.58913216  0.05426499  0.06249616    -0.07200
C1767       C  0.60988274  0.07514313  0.04754244    -0.18300
C1768       C  0.62615797  0.09622458  0.06675916     0.10000
C1769       C  0.62192747  0.09655461  0.10233670    -0.07100
C1770       C  0.60270760  0.07372457  0.11706998    -0.18300
C1771       C  0.58660559  0.05274462  0.09771813     0.10100
S1772       S  0.65056464  0.12374037  0.04467127    -0.33300
S1773       S  0.56280247  0.02476836  0.11961184    -0.33300
H1774       H  0.56631120  0.00175795  0.09467041     0.28100
H1775       H  0.65207122  0.10834747  0.01348862     0.28100
H1776       H  0.61163752  0.07652801  0.02046874     0.18700
H1777       H  0.59918753  0.07187469  0.14375043     0.18700
C1778       C  0.88717403  0.39842945  0.40173075    -0.07200
C1779       C  0.90667235  0.42085719  0.38651268    -0.18300
C1780       C  0.92314752  0.44191445  0.40541754     0.10000
C1781       C  0.92161542  0.44021297  0.44050584    -0.07100
C1782       C  0.90239459  0.41837914  0.45609432    -0.18300
C1783       C  0.88468128  0.39803973  0.43741504     0.10100
S1784       S  0.94449913  0.47145908  0.38332064    -0.33300
S1785       S  0.85850601  0.37240667  0.45998479    -0.33300
H1786       H  0.86648729  0.38062214  0.49262193     0.28100
H1787       H  0.93782913  0.49477654  0.40731823     0.28100
H1788       H  0.90857843  0.42361349  0.35980566     0.18700
H1789       H  0.90105763  0.41755690  0.48317940     0.18700
C1790       C  0.90388714  0.11416973  0.40467275    -0.07200
C1791       C  0.92612210  0.09410220  0.38814115    -0.18300
C1792       C  0.94799351  0.07681222  0.40554565     0.10000
C1793       C  0.94780308  0.07835213  0.44069318    -0.07100
C1794       C  0.92645210  0.09857528  0.45744750    -0.18300
C1795       C  0.90460663  0.11619897  0.44014886     0.10100
S1796       S  0.97656118  0.05427704  0.38122511    -0.33300
S1797       S  0.87750971  0.14066537  0.46436791    -0.33300
H1798       H  0.89546276  0.14267112  0.49291877     0.28100
H1799       H  0.00079020  0.05893832  0.40317837     0.28100
H1800       H  0.92761358  0.09144588  0.36143013     0.18700
H1801       H  0.92615312  0.09984360  0.48450186     0.18700
C1802       C  0.55663037  0.42384787  0.43125670    -0.07200
C1803       C  0.57922979  0.40440909  0.44479025    -0.18300
C1804       C  0.60151906  0.38845071  0.42413336     0.10000
C1805       C  0.60143805  0.39187951  0.38867395    -0.07100
C1806       C  0.57761632  0.41076252  0.37568112    -0.18300
C1807       C  0.55540280  0.42619099  0.39630041     0.10100
S1808       S  0.63041588  0.36472504  0.44398361    -0.33300
S1809       S  0.52563031  0.44845360  0.37635072    -0.33300
H1810       H  0.50244497  0.44230667  0.40112591     0.28100
H1811       H  0.61536415  0.36384561  0.47589850     0.28100
H1812       H  0.58047840  0.40305769  0.47177299     0.18700
H1813       H  0.57526096  0.41418574  0.34935562     0.18700
C1814       C  0.93311197  0.42819571  0.06200786    -0.07200
C1815       C  0.94424396  0.40495793  0.08293179    -0.18300
C1816       C  0.92402816  0.38767359  0.10375499     0.10000
C1817       C  0.89121977  0.39182707  0.10206494    -0.07100
C1818       C  0.88046159  0.41629060  0.08203486    -0.18300
C1819       C  0.90082229  0.43463146  0.06280124     0.10100
S1820       S  0.94104369  0.36089832  0.13267690    -0.33300
S1821       S  0.88378016  0.46514234  0.03875645    -0.33300
H1822       H  0.89884110  0.48848840  0.05629321     0.28100
H1823       H  0.97148829  0.37213272  0.13010191     0.28100
H1824       H  0.96906146  0.40045387  0.08311973     0.18700
H1825       H  0.85614423  0.42230991  0.08149997     0.18700
O1826       O  0.96848604  0.45824269  0.96717580    -0.81200
O1827       O  0.53930843  0.07207512  0.98826231    -0.81200
O1828       O  0.96756286  0.02980619  0.95362776    -0.81200
O1829       O  0.53495252  0.47392895  0.94710960    -0.81200
O1830       O  0.97499281  0.06838795  0.98892560    -0.81300
O1831       O  0.52562454  0.43599285  0.98120580    -0.81200
O1832       O  0.54409499  0.03750307  0.94795883    -0.81200
O1833       O  0.92651576  0.48856638  0.97361850    -0.81200
C1834       C  0.93980169  0.46469880  0.96092064     1.08500
C1835       C  0.54848097  0.06457600  0.95853260     1.08400
C1836       C  0.96499518  0.05832026  0.96130700     1.08500
C1837       C  0.53682064  0.44545919  0.95335198     1.08400
O1838       O  0.52670694  0.46438908  0.54691555    -0.81200
O1839       O  0.97708127  0.03573634  0.55371378    -0.81300
O1840       O  0.95212127  0.47001783  0.53341972    -0.81200
O1841       O  0.57415467  0.02804176  0.51014147    -0.81200
O1842       O  0.53900004  0.03505160  0.55117244    -0.81200
O1843       O  0.97792455  0.42565669  0.52533300    -0.81200
O1844       O  0.56664401  0.46917714  0.51090351    -0.81100
O1845       O  0.94094020  0.03007215  0.51811147    -0.81200
Co1846     Co  0.49761717  0.46338504  0.50991428     1.51500
Co1847     Co  0.00714486  0.05056282  0.01936018     1.51700
Co1848     Co  0.96419252  0.50208887  0.99089750     1.51600
Co1849     Co  0.55135018  0.00081835  0.47781160     1.51500
O1850       O  0.50698392  0.50635660  0.00233597    -1.43100
C1851       C  0.55526268  0.45952429  0.53885528     1.08400
C1852       C  0.94901726  0.03896796  0.54659330     1.08500
C1853       C  0.95538646  0.44068218  0.53933203     1.08500
C1854       C  0.56686646  0.03615698  0.54025749     1.08400
C1855       C  0.63662383  0.14033861  0.87946678     0.85400
C1856       C  0.67103454  0.13197939  0.88506330    -0.54800
C1857       C  0.69185550  0.14683061  0.86428382     0.08400
C1858       C  0.67631066  0.16928199  0.83998111     0.19300
C1859       C  0.63527887  0.17608076  0.88319596    -0.55500
C1860       C  0.65662012  0.19128139  0.86320841     0.08500
C1861       C  0.63201071  0.13514835  0.84190908    -0.55000
C1862       C  0.65240627  0.15015794  0.82119695     0.09000
H1863       H  0.67826807  0.11611793  0.90435728     0.13600
H1864       H  0.69339347  0.18110260  0.82320033    -0.00700
H1865       H  0.61840958  0.18888437  0.89871632     0.13900
H1866       H  0.61351234  0.12118796  0.83240340     0.13700
C1867       C  0.62720554  0.37703812  0.86577579     0.85400
C1868       C  0.62609069  0.34152427  0.86935495    -0.54800
C1869       C  0.64812429  0.32535402  0.85027683     0.08400
C1870       C  0.66882849  0.34652919  0.82840192     0.19300
C1871       C  0.66127874  0.38523361  0.87248356    -0.55500
C1872       C  0.68316336  0.36921014  0.85294801     0.08500
C1873       C  0.62442880  0.38186742  0.82768641    -0.55000
C1874       C  0.64613763  0.36628312  0.80836112     0.09000
H1875       H  0.60934388  0.33017719  0.88599910     0.13600
H1876       H  0.68662985  0.33363469  0.81312746    -0.00700
H1877       H  0.66746048  0.40184390  0.89148653     0.13900
H1878       H  0.60603684  0.39423556  0.81562084     0.13700
C1879       C  0.62938542  0.36640785  0.60902599     0.85400
C1880       C  0.66544194  0.36815785  0.60617031    -0.54800
C1881       C  0.68073091  0.34732493  0.62557859     0.08400
C1882       C  0.65863517  0.32605024  0.64572678     0.19300
C1883       C  0.62299451  0.33228121  0.60010607    -0.55500
C1884       C  0.63817200  0.31113782  0.61923044     0.08500
C1885       C  0.62202994  0.36948463  0.64677445    -0.55000
C1886       C  0.63701832  0.34866497  0.66596044     0.09000
H1887       H  0.67860154  0.38418324  0.59081397     0.13600
H1888       H  0.67074628  0.30918878  0.66176750    -0.00700
H1889       H  0.60767471  0.32544950  0.58054640     0.13900
H1890       H  0.60754654  0.38808816  0.65769814     0.13700
C1891       C  0.63593920  0.12210015  0.62079650     0.85400
C1892       C  0.62532664  0.15524957  0.61195105    -0.54800
C1893       C  0.64013038  0.17803533  0.62850442     0.08400
C1894       C  0.66415548  0.16579791  0.65292813     0.19300
C1895       C  0.67147874  0.12163733  0.61527046    -0.55500
C1896       C  0.68628316  0.14450828  0.63178918     0.08500
C1897       C  0.63133920  0.12086085  0.65958699    -0.55000
C1898       C  0.64666056  0.14332421  0.67623155     0.09000
H1899       H  0.60783725  0.16027853  0.59382560     0.13600
H1900       H  0.67616447  0.18439990  0.66639909    -0.00700
H1901       H  0.68393280  0.10337871  0.60124765     0.13900
H1902       H  0.61824613  0.10380879  0.67357983     0.13700
C1903       C  0.88047844  0.13566162  0.88413502     0.85400
C1904       C  0.88546757  0.17045576  0.89018637    -0.54800
C1905       C  0.86587755  0.18949418  0.87346648     0.08400
C1906       C  0.84301436  0.17220837  0.85199608     0.19300
C1907       C  0.84536521  0.13069822  0.89266464    -0.55500
C1908       C  0.82590511  0.15003816  0.87574406     0.08500
C1909       C  0.88299370  0.13228436  0.84553148    -0.55000
C1910       C  0.86311124  0.15102657  0.82913635     0.09000
H1911       H  0.90260505  0.17918185  0.90689217     0.13600
H1912       H  0.82719041  0.18763240  0.83811151    -0.00700
H1913       H  0.83679226  0.11261291  0.90918117     0.13900
H1914       H  0.89814478  0.11655882  0.83124496     0.13700
C1915       C  0.87288784  0.12490080  0.63015702     0.85400
C1916       C  0.83809373  0.11763706  0.62985858    -0.54800
C1917       C  0.81918236  0.13828535  0.64704880     0.08400
C1918       C  0.83684729  0.16407022  0.66434078     0.19300
C1919       C  0.87545964  0.15890495  0.61835643    -0.55500
C1920       C  0.85632160  0.17938900  0.63611670     0.08500
C1921       C  0.87943188  0.12685302  0.66781972    -0.55000
C1922       C  0.86059121  0.14722179  0.68545050     0.09000
H1923       H  0.82901440  0.09824955  0.61608637     0.13600
H1924       H  0.82175381  0.18046470  0.67930659    -0.00700
H1925       H  0.89131850  0.16607939  0.59815308     0.13900
H1926       H  0.89659365  0.11350464  0.68073048     0.13700
C1927       C  0.86907472  0.36776836  0.62343974     0.85400
C1928       C  0.87486827  0.33268741  0.61834853    -0.54800
C1929       C  0.85687779  0.31420822  0.63873965     0.08400
C1930       C  0.83319037  0.33299348  0.66133593     0.17400
C1931       C  0.83382096  0.37176299  0.61746271    -0.55500
C1932       C  0.81507552  0.35379671  0.63732672     0.08500
C1933       C  0.87178032  0.37340024  0.66116497    -0.55000
C1934       C  0.85296089  0.35556737  0.68108795     0.09000
H1935       H  0.89130948  0.32345694  0.59938404     0.13600
H1936       H  0.81789426  0.31864520  0.67775903    -0.00700
H1937       H  0.82380567  0.38601500  0.59840397     0.13900
H1938       H  0.88781353  0.38983932  0.67124154     0.13700
C1939       C  0.86971665  0.37761931  0.88162847     0.85400
C1940       C  0.83437089  0.38329740  0.88686920    -0.54800
C1941       C  0.81660981  0.36302500  0.87004324     0.08400
C1942       C  0.83566926  0.33877298  0.84931454     0.19300
C1943       C  0.87534436  0.34333037  0.89056530    -0.55500
C1944       C  0.85704278  0.32307917  0.87426170     0.08500
C1945       C  0.87520448  0.37784209  0.84299695    -0.55000
C1946       C  0.85739070  0.35757495  0.82620866     0.09000
H1947       H  0.82436668  0.40256006  0.90146383     0.13600
H1948       H  0.82112437  0.32250455  0.83543356    -0.00700
H1949       H  0.89245225  0.33572720  0.90812543     0.13900
H1950       H  0.89166693  0.39197761  0.82919010     0.13700
C1951       C  0.85707943  0.35636053  0.78895416    -0.07200
C1952       C  0.85393199  0.38431598  0.77163869    -0.18300
C1953       C  0.85175013  0.38491186  0.73681311     0.10000
C1954       C  0.85294443  0.35677682  0.71832892    -0.07100
C1955       C  0.85590031  0.32880100  0.73566187    -0.18300
C1956       C  0.85848501  0.32831600  0.77049814     0.10100
S1957       S  0.84618329  0.42238676  0.71815412    -0.33300
S1958       S  0.86613962  0.29145016  0.78939861    -0.33300
H1959       H  0.88867549  0.30334758  0.81022990     0.28100
H1960       H  0.82851901  0.41166054  0.69196055     0.28100
H1961       H  0.85232685  0.40596299  0.78550838     0.18700
H1962       H  0.85759970  0.30715783  0.72178635     0.18700
C1963       C  0.85816839  0.27939401  0.63731325    -0.07200
C1964       C  0.83006009  0.26352304  0.63964084    -0.18300
C1965       C  0.82869551  0.23147682  0.63516799     0.10000
C1966       C  0.85644093  0.21370904  0.63194634    -0.07100
C1967       C  0.88490306  0.22916023  0.63040356    -0.18300
C1968       C  0.88613362  0.26167015  0.63298315     0.10100
S1969       S  0.79112270  0.21418787  0.63107721    -0.33300
S1970       S  0.92369011  0.27923801  0.63526277    -0.33300
H1971       H  0.94141188  0.25358975  0.62313525     0.28100
H1972       H  0.77298437  0.23958457  0.64301120     0.28100
H1973       H  0.80881287  0.27607890  0.64488109     0.18700
H1974       H  0.90629013  0.21558870  0.62922194     0.18700
C1975       C  0.86030164  0.14995222  0.79257182    -0.07200
C1976       C  0.86311373  0.17762361  0.77467032    -0.18300
C1977       C  0.86367546  0.17756558  0.73967887     0.10000
C1978       C  0.86075775  0.14931670  0.72228367    -0.07100
C1979       C  0.85706777  0.12182749  0.74032036    -0.18300
C1980       C  0.85626778  0.12183791  0.77516728     0.10100
S1981       S  0.87045646  0.21373828  0.71879899    -0.33300
S1982       S  0.84899569  0.08532434  0.79554666    -0.33300
H1983       H  0.83369773  0.09774247  0.82442770     0.28100
H1984       H  0.89119961  0.20062408  0.69436062     0.28100
H1985       H  0.86626584  0.19921395  0.78798210     0.18700
H1986       H  0.85402890  0.10018412  0.72707141     0.18700
C1987       C  0.86507720  0.22371572  0.87656616    -0.07200
C1988       C  0.83601676  0.23830663  0.88233068    -0.18300
C1989       C  0.83282764  0.27059112  0.88287557     0.10000
C1990       C  0.85943981  0.28892489  0.87793874    -0.07100
C1991       C  0.88876593  0.27434163  0.87354654    -0.18300
C1992       C  0.89183655  0.24193688  0.87211883     0.10100
S1993       S  0.79473708  0.28784362  0.89098326    -0.33300
S1994       S  0.92941038  0.22439731  0.86157385    -0.33300
H1995       H  0.94596181  0.25203776  0.85792577     0.28100
H1996       H  0.77783017  0.26027127  0.89128239     0.28100
H1997       H  0.81564867  0.22420665  0.88622333     0.18700
H1998       H  0.90906085  0.28846806  0.86931934     0.18700
C1999       C  0.72050274  0.14454270  0.63470409    -0.07200
C2000       C  0.73229995  0.14671066  0.66689312    -0.18300
C2001       C  0.76410577  0.14342030  0.67195662     0.10000
C2002       C  0.78495776  0.13845514  0.64419665    -0.07100
C2003       C  0.77317916  0.13646924  0.61197907    -0.18300
C2004       C  0.74141128  0.13986933  0.60687736     0.10100
S2005       S  0.77628729  0.14392377  0.71452120    -0.33300
S2006       S  0.72947916  0.13984677  0.56413311    -0.33300
H2007       H  0.70452836  0.16091585  0.56980240     0.28100
H2008       H  0.79894814  0.12046791  0.70899578     0.28100
H2009       H  0.71653345  0.14969318  0.68854834     0.18700
H2010       H  0.78902743  0.13362839  0.59035173     0.18700
C2011       C  0.63442885  0.27692642  0.61619563    -0.07200
C2012       C  0.61536317  0.26232056  0.64029048    -0.18300
C2013       C  0.61477621  0.23006198  0.64323618     0.10000
C2014       C  0.63479942  0.21159238  0.62229747    -0.07100
C2015       C  0.65136018  0.22582749  0.59571106    -0.18300
C2016       C  0.65052657  0.25820021  0.59168563     0.10100
S2017       S  0.58745231  0.21432112  0.67375016    -0.33300
S2018       S  0.66942948  0.27341979  0.55420449    -0.33300
H2019       H  0.67033928  0.30459103  0.56390697     0.28100
H2020       H  0.58647727  0.18434810  0.66016783     0.28100
H2021       H  0.60033839  0.27619668  0.65663075     0.18700
H2022       H  0.66536803  0.21165038  0.57822344     0.18700
C2023       C  0.71515191  0.34830756  0.62931084    -0.07200
C2024       C  0.72869040  0.37674904  0.63711849    -0.18300
C2025       C  0.76105473  0.37934629  0.64002048     0.10000
C2026       C  0.78058925  0.35308212  0.63428585    -0.07100
C2027       C  0.76712609  0.32530724  0.62481668    -0.18300
C2028       C  0.73482907  0.32220380  0.62370093     0.10100
S2029       S  0.77700982  0.41621613  0.65094943    -0.33300
S2030       S  0.71964681  0.28463707  0.61499874    -0.33300
H2031       H  0.74714495  0.27175891  0.60016245     0.28100
H2032       H  0.74864581  0.43283848  0.65396284     0.28100
H2033       H  0.71371846  0.39689293  0.64135463     0.18700
H2034       H  0.78195872  0.30619135  0.61713711     0.18700
C2035       C  0.64316218  0.36381960  0.77178310    -0.07200
C2036       C  0.62418725  0.34048208  0.76010281    -0.18300
C2037       C  0.62111898  0.33539010  0.72591136     0.10000
C2038       C  0.63812850  0.35343856  0.70259065    -0.07100
C2039       C  0.65500615  0.37856713  0.71426810    -0.18300
C2040       C  0.65654553  0.38482727  0.74860956     0.10100
S2041       S  0.59382981  0.30681150  0.71415577    -0.33300
S2042       S  0.67329314  0.42119810  0.76035777    -0.33300
H2043       H  0.66870536  0.41908813  0.79521279     0.28100
H2044       H  0.58403730  0.32287926  0.68582831     0.28100
H2045       H  0.61143411  0.32616272  0.77792985     0.18700
H2046       H  0.66629962  0.39394687  0.69640530     0.18700
C2047       C  0.78240903  0.36647812  0.86739683    -0.07200
C2048       C  0.77120318  0.36815824  0.83511966    -0.18300
C2049       C  0.73937771  0.37036420  0.82959142     0.10000
C2050       C  0.71757038  0.37078103  0.85722236    -0.07100
C2051       C  0.72894907  0.37002498  0.88979100    -0.18300
C2052       C  0.76098108  0.36760738  0.89518644     0.10100
S2053       S  0.72784095  0.37341830  0.78684738    -0.33300
S2054       S  0.77260212  0.36432472  0.93792044    -0.33300
H2055       H  0.79975246  0.34654921  0.93103130     0.28100
H2056       H  0.75763308  0.37524690  0.77124235     0.28100
H2057       H  0.78773328  0.36775041  0.81394839     0.18700
H2058       H  0.71271428  0.36983232  0.91124156     0.18700
C2059       C  0.65026992  0.14858481  0.78412907    -0.07200
C2060       C  0.66048594  0.12151688  0.76714071    -0.18300
C2061       C  0.66001288  0.11912462  0.73211459     0.10000
C2062       C  0.64868160  0.14432764  0.71335086    -0.07100
C2063       C  0.63811312  0.17109072  0.73046050    -0.18300
C2064       C  0.63711350  0.17282314  0.76548171     0.10100
S2065       S  0.67504918  0.08364453  0.71316469    -0.33300
S2066       S  0.61521025  0.20474267  0.78434770    -0.33300
H2067       H  0.60610267  0.18950405  0.81400013     0.28100
H2068       H  0.68730057  0.09714565  0.68373892     0.28100
H2069       H  0.66892766  0.10202225  0.78124898     0.18700
H2070       H  0.62915608  0.19033538  0.71654010     0.18700
C2071       C  0.72628708  0.14467213  0.86774413    -0.07200
C2072       C  0.73880344  0.14955551  0.89936717    -0.18300
C2073       C  0.77111896  0.15124042  0.90311254     0.10000
C2074       C  0.79157202  0.14710297  0.87482176    -0.07100
C2075       C  0.77902534  0.14196184  0.84345109    -0.18300
C2076       C  0.74698672  0.14040743  0.83969390     0.10100
S2077       S  0.78457510  0.16088004  0.94396913    -0.33300
S2078       S  0.73411684  0.13138096  0.79862738    -0.33300
H2079       H  0.71238094  0.11011303  0.81126981     0.28100
H2080       H  0.81068969  0.17748327  0.93252046     0.28100
H2081       H  0.72326600  0.15356085  0.92104666     0.18700
H2082       H  0.79438959  0.13894166  0.82147482     0.18700
C2083       C  0.65863210  0.22581216  0.86175318    -0.07200
C2084       C  0.66453480  0.23938485  0.83047924    -0.18300
C2085       C  0.66113116  0.27125103  0.82548636     0.10000
C2086       C  0.65289439  0.29096646  0.85312849    -0.07100
C2087       C  0.64981508  0.27757264  0.88514861    -0.18300
C2088       C  0.65311317  0.24556275  0.88984564     0.10100
S2089       S  0.66561797  0.28484646  0.78298038    -0.33300
S2090       S  0.65260738  0.23200469  0.93248563    -0.33300
H2091       H  0.67356643  0.20713884  0.92595275     0.28100
H2092       H  0.66876159  0.25607428  0.76644252     0.28100
H2093       H  0.67048132  0.22478977  0.80913176     0.18700
H2094       H  0.64548062  0.29226095  0.90697912     0.18700
C2095       C  0.61366240  0.12103372  0.90106141    -0.07200
C2096       C  0.59200167  0.13496331  0.92439397    -0.18300
C2097       C  0.56963342  0.11767436  0.94230608     0.10000
C2098       C  0.56881729  0.08526941  0.93789729    -0.07100
C2099       C  0.59050352  0.07122640  0.91510685    -0.18300
C2100       C  0.61286633  0.08831469  0.89709883     0.10100
S2101       S  0.54218542  0.13867158  0.96954309    -0.33300
S2102       S  0.64030745  0.06742501  0.86926251    -0.33300
H2103       H  0.63112121  0.03723853  0.87747883     0.28100
H2104       H  0.51448499  0.11747266  0.46089768     0.28100
H2105       H  0.59166453  0.15949647  0.92906555     0.18700
H2106       H  0.59050402  0.04634260  0.91194864     0.18700
C2107       C  0.57444118  0.43829811  0.55915217    -0.07200
C2108       C  0.55980925  0.41391473  0.57618300    -0.18300
C2109       C  0.57693669  0.39044372  0.59175166     0.10000
C2110       C  0.61007188  0.39069442  0.59005682    -0.07100
C2111       C  0.62443221  0.41590124  0.57357534    -0.18300
C2112       C  0.60718426  0.43957574  0.55857702     0.10100
S2113       S  0.55566323  0.36067193  0.61416104    -0.33300
S2114       S  0.62736687  0.47226395  0.54041245    -0.33300
H2115       H  0.65789081  0.46151816  0.54508706     0.28100
H2116       H  0.52557403  0.37239788  0.60917624     0.28100
H2117       H  0.53469985  0.41281513  0.57653643     0.18700
H2118       H  0.64919103  0.41825369  0.57297192     0.18700
C2119       C  0.89228847  0.10138039  0.60856602    -0.07200
C2120       C  0.91477205  0.08173134  0.62277325    -0.18300
C2121       C  0.93162191  0.05943577  0.60381055     0.10000
C2122       C  0.92723582  0.05684844  0.56919439    -0.07100
C2123       C  0.90400354  0.07504906  0.55499910    -0.18300
C2124       C  0.88661216  0.09714481  0.57400430     0.10100
S2125       S  0.95769585  0.03423678  0.62569877    -0.33300
S2126       S  0.85759189  0.11989968  0.55311629    -0.33300
H2127       H  0.85576843  0.10059251  0.52480501     0.28100
H2128       H  0.95243818  0.00800018  0.60577038     0.28100
H2129       H  0.91961420  0.08263738  0.64888543     0.18700
H2130       H  0.90025540  0.07284883  0.52849296     0.18700
C2131       C  0.58939650  0.05246119  0.56080335    -0.07200
C2132       C  0.60805010  0.07485533  0.54522492    -0.18300
C2133       C  0.62363898  0.09694142  0.56395385     0.10000
C2134       C  0.62065660  0.09690703  0.59965592    -0.07100
C2135       C  0.60361422  0.07269959  0.61488802    -0.18300
C2136       C  0.58833646  0.05066231  0.59601856     0.10100
S2137       S  0.64603315  0.12575766  0.54131250    -0.33300
S2138       S  0.56765837  0.02071604  0.61844270    -0.33300
H2139       H  0.57143094  0.99833489  0.59281989     0.28100
H2140       H  0.64356447  0.11319443  0.50897521     0.28100
H2141       H  0.60873499  0.07633940  0.51815214     0.18700
H2142       H  0.60164231  0.07024517  0.64163616     0.18700
C2143       C  0.88849971  0.40050426  0.90229851    -0.07200
C2144       C  0.90670405  0.42369256  0.88654207    -0.18300
C2145       C  0.92303159  0.44529806  0.90489024     0.10000
C2146       C  0.92226438  0.44367662  0.93998397    -0.07100
C2147       C  0.90417179  0.42124036  0.95612119    -0.18300
C2148       C  0.88680711  0.40017140  0.93799848     0.10100
S2149       S  0.94384786  0.47477764  0.88193973    -0.33300
S2150       S  0.86220353  0.37359949  0.96131166    -0.33300
H2151       H  0.86872856  0.38394195  0.99370128     0.28100
H2152       H  0.94040538  0.49784286  0.90677401     0.28100
H2153       H  0.90774678  0.42652651  0.85982541     0.18700
H2154       H  0.90358116  0.42040056  0.98321075     0.18700
C2155       C  0.90283856  0.11514677  0.90416481    -0.07200
C2156       C  0.92521426  0.09507522  0.88791895    -0.18300
C2157       C  0.94675070  0.07773010  0.90562835     0.10000
C2158       C  0.94603933  0.07923951  0.94077866    -0.07100
C2159       C  0.92447581  0.09937128  0.95729982    -0.18300
C2160       C  0.90304949  0.11717391  0.93967423     0.10100
S2161       S  0.97569665  0.05531369  0.88170953    -0.33300
S2162       S  0.87599796  0.14204535  0.96347254    -0.33300
H2163       H  0.89351075  0.14370700  0.99237544     0.28100
H2164       H  0.99961589  0.06033355  0.90392686     0.28100
H2165       H  0.92728981  0.09269115  0.86118680     0.18700
H2166       H  0.92375834  0.10050333  0.98438384     0.18700
C2167       C  0.55620164  0.42511303  0.93065113    -0.07200
C2168       C  0.57787155  0.40474421  0.94446194    -0.18300
C2169       C  0.60119110  0.38956244  0.92433793     0.10000
C2170       C  0.60273522  0.39419546  0.88901248    -0.07100
C2171       C  0.58064184  0.41493871  0.87577775    -0.18300
C2172       C  0.55747055  0.42968447  0.89580814     0.10100
S2173       S  0.62941208  0.36533912  0.94465736    -0.33300
S2174       S  0.52988273  0.45412287  0.87511866    -0.33300
H2175       H  0.50490543  0.44739643  0.89752092     0.28100
H2176       H  0.61875795  0.37106263  0.97791960     0.28100
H2177       H  0.57742789  0.40191690  0.97139125     0.18700
H2178       H  0.58080987  0.42075869  0.84971828     0.18700
C2179       C  0.93338736  0.42468365  0.56270269    -0.07200
C2180       C  0.94477319  0.40141588  0.58342809    -0.18300
C2181       C  0.92472403  0.38400633  0.60429949     0.10000
C2182       C  0.89188551  0.38796469  0.60265082    -0.07100
C2183       C  0.88091475  0.41229930  0.58262585    -0.18300
C2184       C  0.90107305  0.43080052  0.56345902     0.10100
S2185       S  0.94199519  0.35755125  0.63337689    -0.33300
S2186       S  0.88373818  0.46126291  0.53961705    -0.33300
H2187       H  0.89797353  0.48464903  0.55792226     0.28100
H2188       H  0.97202467  0.36990314  0.63161528     0.28100
H2189       H  0.96962589  0.39709803  0.58355333     0.18700
H2190       H  0.85658393  0.41824922  0.58218939     0.18700
O2191       O  0.97005366  0.95545021  0.46571690    -0.81200
O2192       O  0.53773347  0.57106691  0.48885611    -0.81200
O2193       O  0.96628224  0.52894283  0.45505401    -0.81200
O2194       O  0.53470290  0.97276719  0.44409743    -0.81200
O2195       O  0.97292221  0.56748954  0.49066499    -0.81300
O2196       O  0.52558909  0.93537280  0.47902088    -0.81200
O2197       O  0.54246705  0.53621197  0.44895684    -0.81200
O2198       O  0.92774304  0.98498177  0.47406765    -0.81200
C2199       C  0.94108279  0.96160805  0.46034865     1.08500
C2200       C  0.54660660  0.56344556  0.45906784     1.08400
C2201       C  0.96339269  0.55746780  0.46280135     1.08500
C2202       C  0.53621777  0.94434328  0.45080257     1.08400
O2203       O  0.52589225  0.96545844  0.04517960    -0.81200
O2204       O  0.97434221  0.53788933  0.05533989    -0.81300
O2205       O  0.95370111  0.97166356  0.03259700    -0.81200
O2206       O  0.57198816  0.52875258  0.01477951    -0.81200
O2207       O  0.53577129  0.53603280  0.05477482    -0.81200
O2208       O  0.97822212  0.92685175  0.02339537    -0.81200
O2209       O  0.56634542  0.96953108  0.00969282    -0.81100
O2210       O  0.93915779  0.53289536  0.01839348    -0.81200
Co2211     Co  0.49744563  0.96496019  0.00774267     1.51500
Co2212     Co  0.00468072  0.55002867  0.52181848     1.51700
Co2213     Co  0.96571180  0.99898696  0.49029808     1.51600
Co2214     Co  0.55047412  0.50168607  0.98160532     1.51500
O2215       O  0.50837832  0.00589264  0.49997928    -1.43100
C2216       C  0.55448286  0.96042252  0.03766343     1.08400
C2217       C  0.94650405  0.54122235  0.04729056     1.08500
C2218       C  0.95627489  0.94220685  0.03811584     1.08500
C2219       C  0.56385178  0.53729702  0.04449628     1.08400
C2220       C  0.63527241  0.63846044  0.37996073     0.85400
C2221       C  0.66924908  0.62821701  0.38531301    -0.54800
C2222       C  0.69083159  0.64292832  0.36538900     0.08400
C2223       C  0.67645758  0.66699592  0.34203864     0.19300
C2224       C  0.63544206  0.67404664  0.38517043    -0.55500
C2225       C  0.65752013  0.68907305  0.36591846     0.08500
C2226       C  0.63052853  0.63513428  0.34221456    -0.55000
C2227       C  0.65170055  0.64999708  0.32232306     0.09000
H2228       H  0.67564878  0.61128182  0.40390569     0.13600
H2229       H  0.69433360  0.67833351  0.32586239    -0.00700
H2230       H  0.61833890  0.68693152  0.40027814     0.13900
H2231       H  0.61133962  0.62264528  0.33199014     0.13700
C2232       C  0.62556341  0.87421106  0.36468154     0.85400
C2233       C  0.62509728  0.83872253  0.36862752    -0.54800
C2234       C  0.64788514  0.82280055  0.35032122     0.08400
C2235       C  0.66840238  0.84425446  0.32858359     0.19300
C2236       C  0.65921950  0.88330830  0.37198093    -0.55500
C2237       C  0.68167617  0.86763680  0.35302431     0.08500
C2238       C  0.62336839  0.87866439  0.32652001    -0.55000
C2239       C  0.64567607  0.86326405  0.30788411     0.09000
H2240       H  0.60821463  0.82726761  0.38501107     0.13600
H2241       H  0.68691887  0.83191773  0.31385081    -0.00700
H2242       H  0.66471442  0.90043259  0.39074135     0.13900
H2243       H  0.60520854  0.89086415  0.31389495     0.13700
C2244       C  0.62805216  0.86831600  0.10900516     0.85400
C2245       C  0.66408118  0.87023420  0.10595246    -0.54800
C2246       C  0.67967909  0.84910779  0.12475238     0.08400
C2247       C  0.65768157  0.82717496  0.14424636     0.19300
C2248       C  0.62177688  0.83448569  0.09904227    -0.55500
C2249       C  0.63714572  0.81294409  0.11738183     0.08500
C2250       C  0.62077806  0.87034812  0.14682050    -0.55000
C2251       C  0.63606446  0.84910885  0.16524635     0.09000
H2252       H  0.67697764  0.88644174  0.09056844     0.13600
H2253       H  0.66963471  0.80996955  0.15995370    -0.00700
H2254       H  0.60633789  0.82809800  0.07941660     0.13900
H2255       H  0.60615957  0.88854525  0.15835547     0.13700
C2256       C  0.63288109  0.62483690  0.12277858     0.85400
C2257       C  0.62286391  0.65791033  0.11314550    -0.54800
C2258       C  0.63805643  0.68070452  0.12923347     0.08400
C2259       C  0.66169848  0.66860320  0.15411708     0.19300
C2260       C  0.66845168  0.62375330  0.11736355    -0.55500
C2261       C  0.68349055  0.64669351  0.13348643     0.08500
C2262       C  0.62795871  0.62444264  0.16147934    -0.55000
C2263       C  0.64366794  0.64680597  0.17771900     0.09000
H2264       H  0.60556559  0.66289997  0.09479580     0.13600
H2265       H  0.67400127  0.68718827  0.16729952    -0.00700
H2266       H  0.68074162  0.60529909  0.10347678     0.13900
H2267       H  0.61449253  0.60790784  0.17580466     0.13700
C2268       C  0.87960893  0.63548342  0.38479741     0.85400
C2269       C  0.88357360  0.67049511  0.39074629    -0.54800
C2270       C  0.86340339  0.68899005  0.37402318     0.08400
C2271       C  0.84099813  0.67087933  0.35267973     0.19300
C2272       C  0.84475145  0.62949182  0.39334909    -0.55500
C2273       C  0.82463931  0.64809488  0.37644360     0.08500
C2274       C  0.88231542  0.63224993  0.34616379    -0.55000
C2275       C  0.86181003  0.65034990  0.32977678     0.09000
H2276       H  0.90066822  0.67975732  0.40715748     0.13600
H2277       H  0.82468723  0.68577215  0.33879588    -0.00700
H2278       H  0.83682929  0.61113024  0.40986973     0.13900
H2279       H  0.89842181  0.61745526  0.33186569     0.13700
C2280       C  0.86992947  0.62636965  0.13030981     0.85400
C2281       C  0.83508765  0.61973105  0.12925335    -0.54800
C2282       C  0.81638278  0.64009967  0.14705749     0.08400
C2283       C  0.83423756  0.66520414  0.16524668     0.19300
C2284       C  0.87311251  0.66057714  0.11944779    -0.55500
C2285       C  0.85400091  0.68094213  0.13745112     0.08500
C2286       C  0.87641648  0.62751349  0.16797363    -0.55000
C2287       C  0.85769966  0.64758532  0.18604615     0.09000
H2288       H  0.82587052  0.60098670  0.11458898     0.13600
H2289       H  0.81927670  0.68129397  0.18072655    -0.00700
H2290       H  0.88916731  0.66793042  0.09951011     0.13900
H2291       H  0.89421605  0.61452684  0.18035095     0.13700
C2292       C  0.86874125  0.86961449  0.12165605     0.85400
C2293       C  0.87392184  0.83441199  0.11641918    -0.54800
C2294       C  0.85559799  0.81612189  0.13674470     0.08400
C2295       C  0.83197932  0.83530809  0.15904525     0.17400
C2296       C  0.83362188  0.87414820  0.11524725    -0.55500
C2297       C  0.81439579  0.85639077  0.13486427     0.08500
C2298       C  0.87119750  0.87498796  0.15951514    -0.55000
C2299       C  0.85182313  0.85742025  0.17915916     0.09000
H2300       H  0.89020664  0.82504328  0.09740090     0.13600
H2301       H  0.81624675  0.82136933  0.17537992    -0.00700
H2302       H  0.82420110  0.88844907  0.09584356     0.13900
H2303       H  0.88746056  0.89104618  0.16984585     0.13700
C2304       C  0.86809111  0.87740160  0.38032714     0.85400
C2305       C  0.83288720  0.88349130  0.38604018    -0.54800
C2306       C  0.81472843  0.86352976  0.36932592     0.08400
C2307       C  0.83322367  0.83917110  0.34819620     0.19300
C2308       C  0.87340174  0.84299071  0.38891404    -0.55500
C2309       C  0.85469692  0.82302301  0.37276066     0.08500
C2310       C  0.87313336  0.87785279  0.34160788    -0.55000
C2311       C  0.85484372  0.85792982  0.32481553     0.09000
H2312       H  0.82327176  0.90281738  0.40081942     0.13600
H2313       H  0.81818408  0.82320067  0.33457654    -0.00700
H2314       H  0.89058993  0.83510024  0.40624505     0.13900
H2315       H  0.88963948  0.89196597  0.32782226     0.13700
C2316       C  0.85410337  0.85703743  0.28741857    -0.07200
C2317       C  0.85251708  0.88525117  0.27018065    -0.18300
C2318       C  0.85069068  0.88623790  0.23526331     0.10000
C2319       C  0.85113745  0.85830585  0.21650860    -0.07100
C2320       C  0.85207145  0.83011052  0.23372794    -0.18300
C2321       C  0.85380474  0.82914201  0.26866593     0.10100
S2322       S  0.84615016  0.92389419  0.21668270    -0.33300
S2323       S  0.85801628  0.79156877  0.28723125    -0.33300
H2324       H  0.88154104  0.80114807  0.30812924     0.28100
H2325       H  0.82730749  0.91384663  0.19103449     0.28100
H2326       H  0.85180196  0.90684112  0.28416315     0.18700
H2327       H  0.85276090  0.80852761  0.21972194     0.18700
C2328       C  0.85666736  0.78119213  0.13608771    -0.07200
C2329       C  0.82859643  0.76550823  0.14073212    -0.18300
C2330       C  0.82672140  0.73341292  0.13763511     0.10000
C2331       C  0.85417224  0.71530393  0.13331919    -0.07100
C2332       C  0.88269045  0.73049648  0.12973193    -0.18300
C2333       C  0.88435708  0.76304666  0.13109557     0.10100
S2334       S  0.78861277  0.71675850  0.13621065    -0.33300
S2335       S  0.92228048  0.78020846  0.13058982    -0.33300
H2336       H  0.94012205  0.75269921  0.12744359     0.28100
H2337       H  0.77235847  0.74086008  0.15350479     0.28100
H2338       H  0.80751617  0.77820282  0.14671947     0.18700
H2339       H  0.90389100  0.71668877  0.12751716     0.18700
C2340       C  0.85917686  0.64942591  0.29316420    -0.07200
C2341       C  0.86153660  0.67724695  0.27545531    -0.18300
C2342       C  0.86157688  0.67746575  0.24047580     0.10000
C2343       C  0.85845983  0.64935469  0.22288455    -0.07100
C2344       C  0.85547763  0.62165839  0.24072835    -0.18300
C2345       C  0.85535099  0.62137858  0.27557471     0.10100
S2346       S  0.86794038  0.71383044  0.21981962    -0.33300
S2347       S  0.84915386  0.58459583  0.29577316    -0.33300
H2348       H  0.83369366  0.59652248  0.32480069     0.28100
H2349       H  0.88842293  0.70102948  0.19492805     0.28100
H2350       H  0.86463009  0.69877303  0.28890654     0.18700
H2351       H  0.85248935  0.60007337  0.22735114     0.18700
C2352       C  0.86237848  0.72339227  0.37617139    -0.07200
C2353       C  0.83328714  0.73813577  0.38146819    -0.18300
C2354       C  0.83017707  0.77051175  0.38170752     0.10000
C2355       C  0.85681660  0.78877450  0.37644252    -0.07100
C2356       C  0.88607734  0.77405481  0.37228144    -0.18300
C2357       C  0.88914625  0.74164045  0.37166004     0.10100
S2358       S  0.79225794  0.78803969  0.39018660    -0.33300
S2359       S  0.92688541  0.72421336  0.36183698    -0.33300
H2360       H  0.94426819  0.75100951  0.36682822     0.28100
H2361       H  0.77532436  0.76049906  0.39172743     0.28100
H2362       H  0.81289227  0.72409964  0.38550254     0.18700
H2363       H  0.90640505  0.78805377  0.36764039     0.18700
C2364       C  0.71766781  0.64673895  0.13600607    -0.07200
C2365       C  0.72975515  0.64758972  0.16811296    -0.18300
C2366       C  0.76161206  0.64401222  0.17263514     0.10000
C2367       C  0.78218226  0.64056290  0.14442048    -0.07100
C2368       C  0.77012406  0.64012767  0.11226464    -0.18300
C2369       C  0.73824597  0.64339737  0.10773281     0.10100
S2370       S  0.77426745  0.64198682  0.21497710    -0.33300
S2371       S  0.72563621  0.64452418  0.06524990    -0.33300
H2372       H  0.69990579  0.66434888  0.07206303     0.28100
H2373       H  0.79706852  0.61899225  0.20767124     0.28100
H2374       H  0.71416089  0.64963460  0.19002253     0.18700
H2375       H  0.78579584  0.63833428  0.09037421     0.18700
C2376       C  0.63293034  0.77895637  0.11367837    -0.07200
C2377       C  0.61123791  0.76475454  0.13536888    -0.18300
C2378       C  0.61136088  0.73265611  0.13995440     0.10000
C2379       C  0.63351870  0.71404447  0.12191383    -0.07100
C2380       C  0.65258983  0.72777423  0.09699494    -0.18300
C2381       C  0.65187578  0.75996001  0.09195237     0.10100
S2382       S  0.58355654  0.71727863  0.17020691    -0.33300
S2383       S  0.67472745  0.77465280  0.05673961    -0.33300
H2384       H  0.66575688  0.80590090  0.05957935     0.28100
H2385       H  0.58158537  0.68773829  0.15576124     0.28100
H2386       H  0.59413479  0.77886764  0.14900677     0.18700
H2387       H  0.66841507  0.71337675  0.08165432     0.18700
C2388       C  0.71424888  0.85034959  0.12817487    -0.07200
C2389       C  0.72799472  0.87934091  0.13318490    -0.18300
C2390       C  0.76042002  0.88223575  0.13549457     0.10000
C2391       C  0.77990312  0.85573023  0.13154716    -0.07100
C2392       C  0.76625006  0.82736686  0.12490145    -0.18300
C2393       C  0.73395699  0.82393484  0.12499288     0.10100
S2394       S  0.77650019  0.91969596  0.14371755    -0.33300
S2395       S  0.71905245  0.78546694  0.12145405    -0.33300
H2396       H  0.74656026  0.77118274  0.10838109     0.28100
H2397       H  0.74800867  0.93561133  0.14963859     0.28100
H2398       H  0.71315103  0.89975981  0.13586156     0.18700
H2399       H  0.78105278  0.80778509  0.11865628     0.18700
C2400       C  0.64375741  0.86087997  0.27128674    -0.07200
C2401       C  0.62854271  0.83520158  0.25888141    -0.18300
C2402       C  0.62539993  0.83087921  0.22464995     0.10000
C2403       C  0.63762222  0.85275051  0.20196410    -0.07100
C2404       C  0.65099930  0.87964886  0.21449116    -0.18300
C2405       C  0.65340566  0.88444012  0.24897185     0.10100
S2406       S  0.60350559  0.79835508  0.21194440    -0.33300
S2407       S  0.66707617  0.92173453  0.26216772    -0.33300
H2408       H  0.66859115  0.91614993  0.29659717     0.28100
H2409       H  0.58611398  0.81615597  0.18974433     0.28100
H2410       H  0.61826638  0.81869023  0.27620652     0.18700
H2411       H  0.65926915  0.89724040  0.19723093     0.18700
C2412       C  0.78060141  0.86735099  0.36697642    -0.07200
C2413       C  0.76923482  0.86883241  0.33475227    -0.18300
C2414       C  0.73740539  0.87053033  0.32944283     0.10000
C2415       C  0.71583599  0.87063325  0.35721810    -0.07100
C2416       C  0.72730977  0.87055883  0.38973010    -0.18300
C2417       C  0.75937604  0.86875471  0.39492978     0.10100
S2418       S  0.72555619  0.87414989  0.28683137    -0.33300
S2419       S  0.77134942  0.86671341  0.43761349    -0.33300
H2420       H  0.79779327  0.84783364  0.43096144     0.28100
H2421       H  0.75396865  0.86487810  0.27086899     0.28100
H2422       H  0.78560954  0.86889067  0.31344002     0.18700
H2423       H  0.71117161  0.87034535  0.41126512     0.18700
C2424       C  0.64954025  0.65007228  0.28528625    -0.07200
C2425       C  0.65892210  0.62325442  0.26748723    -0.18300
C2426       C  0.65766692  0.62159074  0.23257832     0.10000
C2427       C  0.64641250  0.64736862  0.21466246    -0.07100
C2428       C  0.63646017  0.67397419  0.23248045    -0.18300
C2429       C  0.63648243  0.67506965  0.26755312     0.10100
S2430       S  0.67111541  0.58591597  0.21276302    -0.33300
S2431       S  0.61603892  0.70730355  0.28762811    -0.33300
H2432       H  0.60771060  0.69211908  0.31753405     0.28100
H2433       H  0.68386305  0.59950583  0.18365829     0.28100
H2434       H  0.66711769  0.60324249  0.28093064     0.18700
H2435       H  0.62699033  0.69344139  0.21909057     0.18700
C2436       C  0.72518692  0.63952208  0.36897813    -0.07200
C2437       C  0.73779793  0.64332945  0.40071563    -0.18300
C2438       C  0.77010402  0.64560654  0.40431414     0.10000
C2439       C  0.79042579  0.64372431  0.37564426    -0.07100
C2440       C  0.77780337  0.63885301  0.34424799    -0.18300
C2441       C  0.74581043  0.63612815  0.34075814     0.10100
S2442       S  0.78367997  0.65301304  0.44564572    -0.33300
S2443       S  0.73282791  0.62674961  0.29980845    -0.33300
H2444       H  0.71055904  0.60603105  0.31256100     0.28100
H2445       H  0.80837139  0.67203767  0.43518947     0.28100
H2446       H  0.72232452  0.64621121  0.42263467     0.18700
H2447       H  0.79306549  0.63689041  0.32206811     0.18700
C2448       C  0.65974507  0.72362313  0.36430811    -0.07200
C2449       C  0.66747621  0.73688483  0.33323983    -0.18300
C2450       C  0.66402943  0.76858996  0.32740369     0.10000
C2451       C  0.65347640  0.78856777  0.35404820    -0.07100
C2452       C  0.64864328  0.77556961  0.38610081    -0.18300
C2453       C  0.65218140  0.74372433  0.39164980     0.10100
S2454       S  0.67146850  0.78135964  0.28490584    -0.33300
S2455       S  0.64909311  0.73096625  0.43455845    -0.33300
H2456       H  0.67046840  0.70614641  0.43000785     0.28100
H2457       H  0.67699145  0.75243736  0.26925327     0.28100
H2458       H  0.67445914  0.72215744  0.31235303     0.18700
H2459       H  0.64268705  0.79045148  0.40740551     0.18700
C2460       C  0.61144259  0.61943730  0.40068331    -0.07200
C2461       C  0.59111068  0.63332191  0.42535566    -0.18300
C2462       C  0.56849884  0.61634355  0.44324414     0.10000
C2463       C  0.56634614  0.58416668  0.43774795    -0.07100
C2464       C  0.58639567  0.57023000  0.41319221    -0.18300
C2465       C  0.60870748  0.58710035  0.39487586     0.10100
S2466       S  0.54262398  0.63747455  0.47207027    -0.33300
S2467       S  0.63403317  0.56619105  0.36486091    -0.33300
H2468       H  0.61691969  0.53877545  0.36386367     0.28100
H2469       H  0.51940993  0.62207557  0.96981242     0.28100
H2470       H  0.59219978  0.65756519  0.43132696     0.18700
H2471       H  0.58548645  0.54549217  0.40909139     0.18700
C2472       C  0.57318441  0.93977472  0.05887117    -0.07200
C2473       C  0.55852318  0.91497429  0.07508515    -0.18300
C2474       C  0.57560070  0.89196045  0.09136112     0.10000
C2475       C  0.60868831  0.89292315  0.09073968    -0.07100
C2476       C  0.62291432  0.91900502  0.07588340    -0.18300
C2477       C  0.60567275  0.94231515  0.06037838     0.10100
S2478       S  0.55426737  0.86178564  0.11296823    -0.33300
S2479       S  0.62541934  0.97591497  0.04383997    -0.33300
H2480       H  0.65479976  0.96930031  0.05647118     0.28100
H2481       H  0.52476910  0.87614384  0.11228912     0.28100
H2482       H  0.53353053  0.91306940  0.07409588     0.18700
H2483       H  0.64749848  0.92224438  0.07684888     0.18700
C2484       C  0.88903666  0.60279331  0.10870285    -0.07200
C2485       C  0.90851371  0.58041988  0.12346965    -0.18300
C2486       C  0.92572339  0.55857386  0.10431592     0.10000
C2487       C  0.92412908  0.55874266  0.06927569    -0.07100
C2488       C  0.90300965  0.57896477  0.05445571    -0.18300
C2489       C  0.88541934  0.60076903  0.07355550     0.10100
S2490       S  0.94841834  0.53028640  0.12626212    -0.33300
S2491       S  0.85857177  0.62566818  0.05216059    -0.33300
H2492       H  0.85682517  0.60710342  0.02326639     0.28100
H2493       H  0.94461982  0.50621241  0.10295893     0.28100
H2494       H  0.91019399  0.57850666  0.15011854     0.18700
H2495       H  0.90109774  0.57851092  0.02755307     0.18700
C2496       C  0.58577072  0.55451082  0.06476541    -0.07200
C2497       C  0.60421126  0.57672716  0.04855635    -0.18300
C2498       C  0.61993369  0.59908696  0.06664956     0.10000
C2499       C  0.61730413  0.59947912  0.10233208    -0.07100
C2500       C  0.60038739  0.57549666  0.11821228    -0.18300
C2501       C  0.58487357  0.55324240  0.09994752     0.10100
S2502       S  0.64250742  0.62731615  0.04327022    -0.33300
S2503       S  0.56435492  0.52360856  0.12304006    -0.33300
H2504       H  0.56793181  0.50079727  0.09783952     0.28100
H2505       H  0.63417719  0.61846366  0.01094071     0.28100
H2506       H  0.60491887  0.57759818  0.02144955     0.18700
H2507       H  0.59883178  0.57325141  0.14498868     0.18700
C2508       C  0.88741948  0.89976717  0.40111383    -0.07200
C2509       C  0.90579970  0.92288500  0.38553243    -0.18300
C2510       C  0.92342366  0.94343861  0.40392730     0.10000
C2511       C  0.92333794  0.94103107  0.43903229    -0.07100
C2512       C  0.90450798  0.91906801  0.45501878    -0.18300
C2513       C  0.88616925  0.89893061  0.43680060     0.10100
S2514       S  0.94376484  0.97323760  0.38078278    -0.33300
S2515       S  0.86090271  0.87289024  0.46001420    -0.33300
H2516       H  0.86575435  0.88470313  0.49224588     0.28100
H2517       H  0.96286854  0.98355443  0.40598086     0.28100
H2518       H  0.90615088  0.92629390  0.35889233     0.18700
H2519       H  0.90403948  0.91793064  0.48211664     0.18700
C2520       C  0.90220093  0.61524034  0.40495720    -0.07200
C2521       C  0.92343244  0.59385994  0.38895858    -0.18300
C2522       C  0.94471565  0.57620187  0.40676693     0.10000
C2523       C  0.94479720  0.57860617  0.44188198    -0.07100
C2524       C  0.92429706  0.60002741  0.45810654    -0.18300
C2525       C  0.90305021  0.61801584  0.44037706     0.10100
S2526       S  0.97221900  0.55206068  0.38288973    -0.33300
S2527       S  0.87665528  0.64371276  0.46399780    -0.33300
H2528       H  0.89431906  0.64533803  0.49278750     0.28100
H2529       H  0.99683523  0.55632560  0.40443912     0.28100
H2530       H  0.92436806  0.59025420  0.36234092     0.18700
H2531       H  0.92414427  0.60196971  0.48511495     0.18700
C2532       C  0.55490565  0.92328231  0.42842388    -0.07200
C2533       C  0.57644186  0.90304499  0.44261860    -0.18300
C2534       C  0.59933105  0.88715058  0.42274267     0.10000
C2535       C  0.60067407  0.89111938  0.38733889    -0.07100
C2536       C  0.57825712  0.91118687  0.37361305    -0.18300
C2537       C  0.55552304  0.92668613  0.39347104     0.10100
S2538       S  0.62745421  0.86318538  0.44355603    -0.33300
S2539       S  0.52768655  0.95056460  0.37253489    -0.33300
H2540       H  0.50322208  0.94450464  0.39581387     0.28100
H2541       H  0.61274854  0.86402916  0.47566678     0.28100
H2542       H  0.57644264  0.90106867  0.46963527     0.18700
H2543       H  0.57782645  0.91591707  0.34731683     0.18700
C2544       C  0.93413603  0.92642443  0.06172103    -0.07200
C2545       C  0.94506260  0.90202398  0.08125685    -0.18300
C2546       C  0.92476445  0.88463591  0.10196437     0.10000
C2547       C  0.89200272  0.88974020  0.10119469    -0.07100
C2548       C  0.88154390  0.91533766  0.08267230    -0.18300
C2549       C  0.90203156  0.93383442  0.06380160     0.10100
S2550       S  0.94153185  0.85704735  0.13018641    -0.33300
S2551       S  0.88534118  0.96609206  0.04216463    -0.33300
H2552       H  0.90172774  0.98794373  0.06047167     0.28100
H2553       H  0.97294261  0.86251322  0.12177878     0.28100
H2554       H  0.96979658  0.89694784  0.08068402     0.18700
H2555       H  0.85738788  0.92227151  0.08343087     0.18700
O2556       O  0.96781960  0.95720845  0.96566591    -0.81200
O2557       O  0.53676068  0.57007292  0.99321121    -0.81200
O2558       O  0.96924527  0.53251286  0.95438351    -0.81200
O2559       O  0.53762312  0.97486336  0.94461412    -0.81200
O2560       O  0.97551607  0.57035620  0.99101888    -0.81300
O2561       O  0.52771995  0.93821459  0.98018373    -0.81200
O2562       O  0.54153093  0.53653387  0.95209579    -0.81200
O2563       O  0.92561719  0.98655732  0.97572044    -0.81200
C2564       C  0.93870712  0.96348660  0.96118309     1.08500
C2565       C  0.54679021  0.56303774  0.96373269     1.08400
C2566       C  0.96655864  0.56094542  0.96263789     1.08500
C2567       C  0.53865400  0.94656134  0.95183617     1.08400
O2568       O  0.52673370  0.96057016  0.54432363    -0.81200
O2569       O  0.97321204  0.53611332  0.55552086    -0.81300
O2570       O  0.95504288  0.97030629  0.53167618    -0.81200
O2571       O  0.57389802  0.53146290  0.51189522    -0.81200
O2572       O  0.53756314  0.53773273  0.55166425    -0.81200
O2573       O  0.98005436  0.92552541  0.52342186    -0.81200
O2574       O  0.56570271  0.96617154  0.50719419    -0.81100
O2575       O  0.93726070  0.52986702  0.51978110    -0.81200
Co2576     Co  0.49652001  0.96163665  0.50827672     1.51500
Co2577     Co  0.00651625  0.55188494  0.02243858     1.51700
Co2578     Co  0.96388871  0.00030843  0.99103193     1.51600
Co2579     Co  0.55233836  0.50277423  0.47983246     1.51500
O2580       O  0.50932616  0.00894904  0.99886878    -1.43100
C2581       C  0.55508463  0.95588350  0.53513467     1.08400
C2582       C  0.94516498  0.53913479  0.54820266     1.08500
C2583       C  0.95802159  0.94099993  0.53779771     1.08500
C2584       C  0.56560031  0.53958559  0.54172989     1.08400
C2585       C  0.63791191  0.63680526  0.88732949     0.85400
C2586       C  0.67277864  0.62981383  0.89143692    -0.54800
C2587       C  0.69233607  0.64473963  0.86920248     0.08400
C2588       C  0.67479168  0.66584028  0.84485824     0.19300
C2589       C  0.63526401  0.67256285  0.88966853    -0.55500
C2590       C  0.65489748  0.68774938  0.86780386     0.08500
C2591       C  0.63196465  0.63009442  0.85037902    -0.55000
C2592       C  0.65084916  0.64520272  0.82820623     0.09000
H2593       H  0.68119725  0.61462168  0.91076099     0.13600
H2594       H  0.69019324  0.67836452  0.82684437    -0.00700
H2595       H  0.61831075  0.68533910  0.90516969     0.13900
H2596       H  0.61347584  0.61531332  0.84231135     0.13700
C2597       C  0.62374820  0.87299282  0.86367884     0.85400
C2598       C  0.62139463  0.83767272  0.86766580    -0.54800
C2599       C  0.64271988  0.82072267  0.84864139     0.08400
C2600       C  0.66422241  0.84079564  0.82647598     0.19300
C2601       C  0.65812231  0.88013511  0.87007848    -0.55500
C2602       C  0.67955939  0.86320723  0.85078457     0.08500
C2603       C  0.62127014  0.87798794  0.82562783    -0.55000
C2604       C  0.64230967  0.86145259  0.80641005     0.09000
H2605       H  0.60463803  0.82697716  0.88484597     0.13600
H2606       H  0.68090946  0.82649165  0.81121464    -0.00700
H2607       H  0.66477486  0.89710471  0.88848880     0.13900
H2608       H  0.60464656  0.89260332  0.81347213     0.13700
C2609       C  0.63356056  0.86644388  0.60473147     0.85400
C2610       C  0.66944672  0.87010355  0.60168953    -0.54800
C2611       C  0.68549717  0.85168203  0.62290113     0.08400
C2612       C  0.66468888  0.83124915  0.64506978     0.19300
C2613       C  0.62936188  0.83123527  0.59897727    -0.55500
C2614       C  0.64556013  0.81273502  0.62030182     0.08500
C2615       C  0.62555473  0.87202146  0.64209145    -0.55000
C2616       C  0.64146419  0.85360963  0.66296297     0.09000
H2617       H  0.68185790  0.88539718  0.58477453     0.13600
H2618       H  0.67806657  0.81678754  0.66252204    -0.00700
H2619       H  0.61418637  0.82194295  0.58052467     0.13900
H2620       H  0.60898252  0.88962607  0.65137076     0.13700
C2621       C  0.63271536  0.62366368  0.62732760     0.85400
C2622       C  0.62458156  0.65801253  0.62028348    -0.54800
C2623       C  0.64014885  0.67893356  0.63915089     0.08400
C2624       C  0.66229973  0.66333571  0.66368400     0.19300
C2625       C  0.66841543  0.62148542  0.62300977    -0.55500
C2626       C  0.68375630  0.64255447  0.64151226     0.08500
C2627       C  0.62640747  0.62062981  0.66569434    -0.55000
C2628       C  0.64247151  0.64063190  0.68444855     0.09000
H2629       H  0.60849716  0.66510630  0.60143401     0.13600
H2630       H  0.67535333  0.67978608  0.67898344    -0.00700
H2631       H  0.68051670  0.60431953  0.60709721     0.13900
H2632       H  0.61180143  0.60392828  0.67829810     0.13700
C2633       C  0.88224614  0.63840434  0.88511604     0.85400
C2634       C  0.88565266  0.67334463  0.89149791    -0.54800
C2635       C  0.86502701  0.69160723  0.87527576     0.08400
C2636       C  0.84278533  0.67348967  0.85384440     0.19300
C2637       C  0.84756270  0.63166570  0.89385834    -0.55500
C2638       C  0.82698463  0.65018651  0.87748025     0.08500
C2639       C  0.88473927  0.63566128  0.84640863    -0.55000
C2640       C  0.86375303  0.65360456  0.83036944     0.09000
H2641       H  0.90278250  0.68278103  0.90776530     0.13600
H2642       H  0.82615421  0.68840849  0.84042377    -0.00700
H2643       H  0.84012183  0.61301370  0.91023869     0.13900
H2644       H  0.90103966  0.62123534  0.83190961     0.13700
C2645       C  0.87064256  0.62716398  0.63076239     0.85400
C2646       C  0.83576098  0.62052168  0.63050826    -0.54800
C2647       C  0.81734093  0.64148649  0.64769676     0.08400
C2648       C  0.83525727  0.66726645  0.66462680     0.19300
C2649       C  0.87381003  0.66091454  0.61860616    -0.55500
C2650       C  0.85495921  0.68182551  0.63605293     0.08500
C2651       C  0.87741964  0.62955102  0.66839175    -0.55000
C2652       C  0.85888737  0.65031406  0.68605457     0.09000
H2653       H  0.82627161  0.60114155  0.61706392     0.13600
H2654       H  0.82005919  0.68404391  0.67903119    -0.00700
H2655       H  0.88989653  0.66768986  0.59842819     0.13900
H2656       H  0.89493409  0.61646118  0.68108055     0.13700
C2657       C  0.87284480  0.86880042  0.62329227     0.85400
C2658       C  0.87796947  0.83381799  0.61705140    -0.54800
C2659       C  0.85961962  0.81544194  0.63699483     0.08400
C2660       C  0.83680527  0.83371697  0.66064333     0.17400
C2661       C  0.83756692  0.87339998  0.61788565    -0.55500
C2662       C  0.81883221  0.85518291  0.63759005     0.08500
C2663       C  0.87611350  0.87343815  0.66110308    -0.55000
C2664       C  0.85707647  0.85546456  0.68063612     0.09000
H2665       H  0.89413366  0.82444576  0.59785984     0.13600
H2666       H  0.82158258  0.81873306  0.67647181    -0.00700
H2667       H  0.82761436  0.88827768  0.59930884     0.13900
H2668       H  0.89217652  0.88967561  0.67149856     0.13700
C2669       C  0.86605556  0.87958433  0.88107043     0.85400
C2670       C  0.83050450  0.88484706  0.88531475    -0.54800
C2671       C  0.81343158  0.86387982  0.86845562     0.08400
C2672       C  0.83336008  0.83966087  0.84865438     0.19300
C2673       C  0.87195396  0.84556423  0.89077343    -0.55500
C2674       C  0.85433757  0.82481906  0.87444013     0.08500
C2675       C  0.87230008  0.87934866  0.84259407    -0.55000
C2676       C  0.85517878  0.85855631  0.82573286     0.09000
H2677       H  0.81994717  0.90414869  0.89938943     0.13600
H2678       H  0.81951024  0.82272525  0.83483756    -0.00700
H2679       H  0.88876456  0.83848214  0.90889857     0.13900
H2680       H  0.88864616  0.89367698  0.82888409     0.13700
C2681       C  0.85577877  0.85698037  0.78850679    -0.07200
C2682       C  0.85285613  0.88478056  0.77079743    -0.18300
C2683       C  0.85260992  0.88508956  0.73582530     0.10000
C2684       C  0.85578087  0.85687680  0.71773553    -0.07100
C2685       C  0.85803576  0.82903887  0.73538083    -0.18300
C2686       C  0.85849080  0.82880875  0.77037417     0.10100
S2687       S  0.84667248  0.92215720  0.71626267    -0.33300
S2688       S  0.86520730  0.79214264  0.79003420    -0.33300
H2689       H  0.88762843  0.80422671  0.81086102     0.28100
H2690       H  0.82989629  0.91095180  0.68942236     0.28100
H2691       H  0.85002048  0.90648976  0.78440768     0.18700
H2692       H  0.86069882  0.80733635  0.72171592     0.18700
C2693       C  0.85952088  0.78113354  0.63413771    -0.07200
C2694       C  0.83094454  0.76668421  0.63047771    -0.18300
C2695       C  0.82895856  0.73434819  0.62893380     0.10000
C2696       C  0.85617165  0.71589018  0.63122439    -0.07100
C2697       C  0.88494103  0.73037345  0.63329564    -0.18300
C2698       C  0.88688109  0.76270884  0.63543205     0.10100
S2699       S  0.79175346  0.71709693  0.62268839    -0.33300
S2700       S  0.92388170  0.77971966  0.64327969    -0.33300
H2701       H  0.94194217  0.75231088  0.64072776     0.28100
H2702       H  0.77396510  0.74471227  0.62284957     0.28100
H2703       H  0.81011034  0.78089131  0.62877966     0.18700
H2704       H  0.90568670  0.71615332  0.63557188     0.18700
C2705       C  0.86057892  0.65277432  0.79367405    -0.07200
C2706       C  0.86092926  0.68069770  0.77592666    -0.18300
C2707       C  0.86062508  0.68085728  0.74086548     0.10000
C2708       C  0.85944436  0.65252056  0.72312712    -0.07100
C2709       C  0.85819102  0.62477335  0.74114817    -0.18300
C2710       C  0.85812730  0.62458558  0.77600257     0.10100
S2711       S  0.86439594  0.71755321  0.72029021    -0.33300
S2712       S  0.85346675  0.58763564  0.79623917    -0.33300
H2713       H  0.83613130  0.59916380  0.82431425     0.28100
H2714       H  0.88703299  0.70605558  0.69689576     0.28100
H2715       H  0.86277454  0.70242073  0.78936684     0.18700
H2716       H  0.85638571  0.60294400  0.72791528     0.18700
C2717       C  0.86358119  0.72581135  0.87797155    -0.07200
C2718       C  0.83444767  0.74004747  0.88454404    -0.18300
C2719       C  0.83091084  0.77232783  0.88486568     0.10000
C2720       C  0.85719066  0.79086119  0.87879993    -0.07100
C2721       C  0.88657351  0.77665711  0.87371785    -0.18300
C2722       C  0.88998547  0.74433093  0.87240556     0.10100
S2723       S  0.79291395  0.78945586  0.89390980    -0.33300
S2724       S  0.92743092  0.72725503  0.86032038    -0.33300
H2725       H  0.94368436  0.75506842  0.85665444     0.28100
H2726       H  0.77673912  0.76168897  0.89843610     0.28100
H2727       H  0.81435389  0.72569973  0.88912214     0.18700
H2728       H  0.90657194  0.79101772  0.86870172     0.18700
C2729       C  0.71804878  0.64380038  0.64227794    -0.07200
C2730       C  0.73171135  0.64337604  0.67356170    -0.18300
C2731       C  0.76390947  0.64121495  0.67602407     0.10000
C2732       C  0.78313772  0.64099742  0.64668484    -0.07100
C2733       C  0.76960614  0.64234933  0.61535354    -0.18300
C2734       C  0.73736211  0.64434637  0.61285525     0.10100
S2735       S  0.77900578  0.63663877  0.71702489    -0.33300
S2736       S  0.72259020  0.65008731  0.57175896    -0.33300
H2737       H  0.69710634  0.66887986  0.58270140     0.28100
H2738       H  0.80169231  0.61449233  0.70644373     0.28100
H2739       H  0.71721910  0.64374153  0.69632060     0.18700
H2740       H  0.78435421  0.64318603  0.59272841     0.18700
C2741       C  0.64292994  0.77830380  0.62287271    -0.07200
C2742       C  0.63994600  0.76613897  0.65518381    -0.18300
C2743       C  0.63722608  0.73447879  0.66099985     0.10000
C2744       C  0.63881355  0.71331842  0.63386648    -0.07100
C2745       C  0.64149940  0.72532099  0.60112357    -0.18300
C2746       C  0.64378319  0.75741684  0.59533468     0.10100
S2747       S  0.63062866  0.72233434  0.70358823    -0.33300
S2748       S  0.65019914  0.76970588  0.55262325    -0.33300
H2749       H  0.67001237  0.79404267  0.56031014     0.28100
H2750       H  0.62170438  0.75131945  0.71734276     0.28100
H2751       H  0.63981899  0.78163376  0.67644437     0.18700
H2752       H  0.64323640  0.70952650  0.57993080     0.18700
C2753       C  0.71976495  0.85241178  0.62588439    -0.07200
C2754       C  0.73152543  0.85723077  0.65769783    -0.18300
C2755       C  0.76360502  0.85853538  0.66223271     0.10000
C2756       C  0.78457129  0.85432778  0.63443043    -0.07100
C2757       C  0.77281472  0.84914676  0.60264006    -0.18300
C2758       C  0.74068805  0.84799488  0.59807058     0.10100
S2759       S  0.77710667  0.86690980  0.70338292    -0.33300
S2760       S  0.72679376  0.83901873  0.55712357    -0.33300
H2761       H  0.75607200  0.83653158  0.54027101     0.28100
H2762       H  0.74886999  0.87982404  0.71632604     0.28100
H2763       H  0.71548162  0.86029446  0.67906692     0.18700
H2764       H  0.78897695  0.84546972  0.58145281     0.18700
C2765       C  0.64117222  0.86169714  0.76958712    -0.07200
C2766       C  0.62070371  0.84135651  0.75477533    -0.18300
C2767       C  0.61880576  0.83943913  0.72002867     0.10000
C2768       C  0.63889349  0.85738619  0.69959659    -0.07100
C2769       C  0.65717890  0.87980861  0.71436952    -0.18300
C2770       C  0.65749457  0.88313260  0.74920226     0.10100
S2771       S  0.58949791  0.81465100  0.70393163    -0.33300
S2772       S  0.67748235  0.91623806  0.76519408    -0.33300
H2773       H  0.66813038  0.91389356  0.79907518     0.28100
H2774       H  0.58780550  0.82816652  0.67222765     0.28100
H2775       H  0.60576303  0.82708405  0.77052765     0.18700
H2776       H  0.67090793  0.89516570  0.69858590     0.18700
C2777       C  0.77910197  0.86566336  0.86545113    -0.07200
C2778       C  0.76798089  0.86318832  0.83318297    -0.18300
C2779       C  0.73619869  0.86228715  0.82742400     0.10000
C2780       C  0.71411759  0.86500299  0.85475200    -0.07100
C2781       C  0.72541826  0.86824729  0.88724730    -0.18300
C2782       C  0.75744634  0.86815013  0.89293555     0.10100
S2783       S  0.72564639  0.85899812  0.78442146    -0.33300
S2784       S  0.76885292  0.86953079  0.93584164    -0.33300
H2785       H  0.79550303  0.85055340  0.93103752     0.28100
H2786       H  0.75347989  0.84458655  0.77235565     0.28100
H2787       H  0.78452010  0.86208334  0.81201047     0.18700
H2788       H  0.70919249  0.86952190  0.90868253     0.18700
C2789       C  0.64662095  0.64298023  0.79168671    -0.07200
C2790       C  0.66448659  0.62095800  0.77321953    -0.18300
C2791       C  0.66302867  0.61868395  0.73834810     0.10000
C2792       C  0.64257959  0.63864283  0.72148497    -0.07100
C2793       C  0.62175560  0.65753842  0.74047191    -0.18300
C2794       C  0.62386407  0.66056601  0.77520731     0.10100
S2795       S  0.68755714  0.58938864  0.71775478    -0.33300
S2796       S  0.59695108  0.68765413  0.79602236    -0.33300
H2797       H  0.59979339  0.67780468  0.82902821     0.28100
H2798       H  0.67192806  0.58703182  0.68786032     0.28100
H2799       H  0.67963645  0.60521061  0.78614038     0.18700
H2800       H  0.60381300  0.67035462  0.72803206     0.18700
C2801       C  0.72711735  0.64342422  0.87131723    -0.07200
C2802       C  0.74041611  0.64501610  0.90299896    -0.18300
C2803       C  0.77281627  0.64629632  0.90626287     0.10000
C2804       C  0.79271904  0.64579712  0.87725504    -0.07100
C2805       C  0.77955895  0.64294045  0.84590542    -0.18300
C2806       C  0.74737809  0.64139512  0.84258621     0.10100
S2807       S  0.78702920  0.65007960  0.94787392    -0.33300
S2808       S  0.73342716  0.63579840  0.80121927    -0.33300
H2809       H  0.76100130  0.62220023  0.78740158     0.28100
H2810       H  0.81165976  0.66969537  0.93883539     0.28100
H2811       H  0.72543444  0.64653044  0.92542607     0.18700
H2812       H  0.79468926  0.64219271  0.82357239     0.18700
C2813       C  0.65428359  0.72203289  0.86372110    -0.07200
C2814       C  0.65492445  0.73395896  0.83114066    -0.18300
C2815       C  0.65165273  0.76576739  0.82518217     0.10000
C2816       C  0.64691624  0.78652293  0.85258387    -0.07100
C2817       C  0.64724335  0.77459983  0.88524874    -0.18300
C2818       C  0.65161456  0.74293950  0.89110510     0.10100
S2819       S  0.65172496  0.77847973  0.78229593    -0.33300
S2820       S  0.65553482  0.73118988  0.93399546    -0.33300
H2821       H  0.67678755  0.70678583  0.92646143     0.28100
H2822       H  0.66313713  0.75077134  0.76734709     0.28100
H2823       H  0.65695317  0.71814595  0.81005261     0.18700
H2824       H  0.64508390  0.79026779  0.90653872     0.18700
C2825       C  0.61623798  0.61765019  0.91042536    -0.07200
C2826       C  0.59552305  0.63180619  0.93449067    -0.18300
C2827       C  0.57220758  0.61511901  0.95155802     0.10000
C2828       C  0.56936088  0.58309621  0.94527618    -0.07100
C2829       C  0.59133872  0.56851960  0.92320708    -0.18300
C2830       C  0.61493264  0.58499735  0.90645506     0.10100
S2831       S  0.54645415  0.63648123  0.98031289    -0.33300
S2832       S  0.64306513  0.56358346  0.87994807    -0.33300
H2833       H  0.63231778  0.53366931  0.88695842     0.28100
H2834       H  0.51607108  0.62101633  0.46364518     0.28100
H2835       H  0.59671460  0.65608695  0.94032969     0.18700
H2836       H  0.59044720  0.54373056  0.91950167     0.18700
C2837       C  0.57519647  0.93453800  0.55408767    -0.07200
C2838       C  0.56180022  0.90892947  0.57005806    -0.18300
C2839       C  0.58008363  0.88598838  0.58505453     0.10000
C2840       C  0.61312934  0.88825112  0.58398159    -0.07100
C2841       C  0.62617708  0.91422593  0.56774487    -0.18300
C2842       C  0.60784042  0.93710889  0.55303260     0.10100
S2843       S  0.56032367  0.85460846  0.60634734    -0.33300
S2844       S  0.62666269  0.97064397  0.53505135    -0.33300
H2845       H  0.65715853  0.95834704  0.53359928     0.28100
H2846       H  0.52967835  0.86455081  0.60099652     0.28100
H2847       H  0.53679313  0.90663584  0.57025192     0.18700
H2848       H  0.65069292  0.91818765  0.56768845     0.18700
C2849       C  0.88943730  0.60299446  0.60940103    -0.07200
C2850       C  0.91030166  0.58191663  0.62409120    -0.18300
C2851       C  0.92669029  0.55917623  0.60525249     0.10000
C2852       C  0.92332346  0.55739381  0.57040893    -0.07100
C2853       C  0.90130570  0.57675960  0.55577173    -0.18300
C2854       C  0.88434723  0.59930714  0.57462413     0.10100
S2855       S  0.95071909  0.53226593  0.62749582    -0.33300
S2856       S  0.85646459  0.62316550  0.55335851    -0.33300
H2857       H  0.85463842  0.60423917  0.52475185     0.28100
H2858       H  0.94566233  0.50695005  0.60615833     0.28100
H2859       H  0.91387948  0.58185666  0.65052793     0.18700
H2860       H  0.89821712  0.57506481  0.52909578     0.18700
C2861       C  0.58700215  0.55612721  0.56343940    -0.07200
C2862       C  0.60644493  0.57858509  0.54911318    -0.18300
C2863       C  0.62131732  0.60040979  0.56901580     0.10000
C2864       C  0.61684053  0.59999321  0.60457772    -0.07100
C2865       C  0.59843075  0.57605446  0.61844945    -0.18300
C2866       C  0.58394542  0.55435563  0.59857803     0.10100
S2867       S  0.64494413  0.62922356  0.54806121    -0.33300
S2868       S  0.56163405  0.52480518  0.61983511    -0.33300
H2869       H  0.56771769  0.50192742  0.59514851     0.28100
H2870       H  0.64457626  0.61650685  0.51557749     0.28100
H2871       H  0.60846519  0.58022295  0.52207432     0.18700
H2872       H  0.59480399  0.57319394  0.64495028     0.18700
C2873       C  0.88456174  0.90255005  0.90186179    -0.07200
C2874       C  0.90423665  0.92467672  0.88631874    -0.18300
C2875       C  0.92161452  0.94517851  0.90493202     0.10000
C2876       C  0.92036601  0.94346856  0.94000909    -0.07100
C2877       C  0.90042488  0.92248135  0.95591796    -0.18300
C2878       C  0.88213764  0.90249122  0.93753586     0.10100
S2879       S  0.94420083  0.97368405  0.88251709    -0.33300
S2880       S  0.85585531  0.87725518  0.96049042    -0.33300
H2881       H  0.86077475  0.88884802  0.99279759     0.28100
H2882       H  0.93909601  0.99726171  0.90656099     0.28100
H2883       H  0.90591670  0.92738890  0.85959865     0.18700
H2884       H  0.89929664  0.92176928  0.98302364     0.18700
C2885       C  0.90534529  0.61860766  0.90503318    -0.07200
C2886       C  0.92710829  0.59789670  0.88884786    -0.18300
C2887       C  0.94861368  0.58044218  0.90660538     0.10000
C2888       C  0.94846935  0.58253722  0.94176265    -0.07100
C2889       C  0.92780486  0.60371017  0.95807502    -0.18300
C2890       C  0.90623473  0.62134181  0.94046304     0.10100
S2891       S  0.97656292  0.55681988  0.88271641    -0.33300
S2892       S  0.87945076  0.64644913  0.96432793    -0.33300
H2893       H  0.89776841  0.64916853  0.99253061     0.28100
H2894       H  0.00089353  0.56121838  0.90460397     0.28100
H2895       H  0.92820150  0.59466053  0.86216714     0.18700
H2896       H  0.92762484  0.60558466  0.98508393     0.18700
C2897       C  0.55637104  0.92477566  0.92931829    -0.07200
C2898       C  0.57816134  0.90449818  0.94300826    -0.18300
C2899       C  0.59991511  0.88764383  0.92251134     0.10000
C2900       C  0.60002215  0.89090464  0.88701946    -0.07100
C2901       C  0.57699916  0.91064385  0.87384366    -0.18300
C2902       C  0.55544015  0.92714905  0.89432042     0.10100
S2903       S  0.62786138  0.86285251  0.94252230    -0.33300
S2904       S  0.52690627  0.95079064  0.87406686    -0.33300
H2905       H  0.50324313  0.94619332  0.89876449     0.28100
H2906       H  0.61517981  0.86574605  0.97543533     0.28100
H2907       H  0.57912417  0.90306427  0.97000301     0.18700
H2908       H  0.57480516  0.91390640  0.84747113     0.18700
C2909       C  0.93645374  0.92551008  0.56196964    -0.07200
C2910       C  0.94790872  0.90103346  0.58099238    -0.18300
C2911       C  0.92821735  0.88374646  0.60227305     0.10000
C2912       C  0.89549041  0.88915633  0.60269072    -0.07100
C2913       C  0.88453710  0.91499073  0.58489757    -0.18300
C2914       C  0.90449687  0.93327273  0.56523233     0.10100
S2915       S  0.94581573  0.85553870  0.62918676    -0.33300
S2916       S  0.88732586  0.96550939  0.54397110    -0.33300
H2917       H  0.90402344  0.98731288  0.56200148     0.28100
H2918       H  0.97678016  0.86475370  0.62394608     0.28100
H2919       H  0.97257960  0.89561173  0.57938444     0.18700
H2920       H  0.86045779  0.92216622  0.58669162     0.18700
loop_ 
_geom_bond_atom_site_label_1 
_geom_bond_atom_site_label_2 
_geom_bond_distance 
_geom_bond_site_symmetry_2 
_ccdc_geom_bond_type 
O1            C9   1.298       .  A
O1        Co1846   2.121       .  S
O2           C10   1.274       .  A
O2        Co1482   2.031       .  S
O3           C11   1.271       .  A
O3         Co753   1.972   1_545  S
O4           C12   1.259       .  A
O4        Co1119   1.972       .  S
O5           C11   1.278       .  A
O5          Co22   2.025       .  S
O6           C12   1.263       .  A
O6         Co386   2.014   1_455  S
O7           C10   1.259       .  A
O7         Co389   1.954       .  S
O8            C9   1.265       .  A
O8          Co23   1.888       .  S
C9          C321   1.472       .  S
C10         C273   1.485       .  S
C11         C333   1.483       .  S
C12         C342   1.477       .  S
O13          C26   1.271       .  A
O13         Co21   1.973   1_455  S
O14          C27   1.258       .  A
O14        Co387   1.973       .  S
O15          C28   1.297       .  A
O15        Co388   2.112   1_554  S
O16          C29   1.275       .  A
O16         Co24   2.033   1_554  S
O17          C29   1.260       .  A
O17       Co1847   1.960       .  S
O18          C28   1.270       .  A
O18       Co1481   1.894       .  S
O19          C26   1.276       .  A
O19        Co754   2.020   1_554  S
O20          C27   1.262       .  A
O20       Co1118   2.003   1_554  S
Co21       O1826   2.116   1_554  S
Co21        O371   2.014   1_654  S
Co21       O1478   1.891       .  S
Co21        O390   2.009   1_655  S
Co22       O1462   2.033       .  S
Co22        O379   1.974       .  S
Co22       O1842   1.960       .  S
Co22       O2215   2.034       .  S
Co23        O733   1.975       .  S
Co23        O380   2.119       .  S
Co23       O1115   2.003       .  S
Co23       O1485   1.998       .  S
Co24       O1099   1.976   1_545  S
Co24        O372   1.958       .  S
Co24        O749   2.018   1_546  S
Co24       O1120   2.027       .  S
O25        Co386   2.013   1_455  S
O25       Co2212   2.035       .  S
O25       Co1483   2.003   1_455  S
O25       Co1119   2.026       .  S
C26         C282   1.486       .  S
C27         C297   1.476       .  S
C28         C354   1.487       .  S
C29         C306   1.479       .  S
C30          C31   1.544       .  S
C30          C36   1.535       .  S
C30          C34   1.549       .  S
C30         C270   1.539       .  S
C31          H38   1.086       .  S
C31          C32   1.367       .  D
C32          C33   1.544       .  S
C32         C246   1.500       .  S
C33          C37   1.546       .  S
C33          C35   1.541       .  S
C33          H39   1.108       .  S
C34          H40   1.079       .  S
C34          C35   1.369       .  D
C35         C258   1.491       .  S
C36          H41   1.087       .  S
C36          C37   1.356       .  D
C37         C234   1.486       .  S
C42          C43   1.539       .  S
C42          C48   1.545       .  S
C42          C46   1.549       .  S
C42         C345   1.547       .  S
C43          H50   1.086       .  S
C43          C44   1.367       .  D
C44          C45   1.536       .  S
C44         C261   1.495       .  S
C45          C49   1.538       .  S
C45          C47   1.539       .  S
C45          H51   1.100       .  S
C46          H52   1.085       .  S
C46          C47   1.375       .  D
C47         C225   1.503       .  S
C48          H53   1.079       .  S
C48          C49   1.355       .  D
C49         C210   1.475       .  S
C54          C55   1.555       .  S
C54          C60   1.533       .  S
C54          C58   1.544       .  S
C54         C285   1.545       .  S
C55          H62   1.080       .  S
C55          C56   1.369       .  D
C56          C57   1.537       .  S
C56         C198   1.494       .  S
C57          C61   1.537       .  S
C57          C59   1.545       .  S
C57          H63   1.110       .  S
C58          H64   1.086       .  S
C58          C59   1.367       .  D
C59         C186   1.488       .  S
C60          H65   1.087       .  S
C60          C61   1.357       .  D
C61         C213   1.474       .  S
C66          C67   1.542       .  S
C66          C72   1.555       .  S
C66          C70   1.537       .  S
C66         C309   1.544       .  S
C67          H74   1.086       .  S
C67          C68   1.363       .  D
C68          C69   1.539       .  S
C68         C189   1.483       .  S
C69          C73   1.534       .  S
C69          C71   1.536       .  S
C69          H75   1.111       .  S
C70          H76   1.086       .  S
C70          C71   1.366       .  D
C71         C174   1.483       .  S
C72          H77   1.080       .  S
C72          C73   1.367       .  D
C73         C237   1.487       .  S
C78          C79   1.541       .  S
C78          C84   1.547       .  S
C78          C82   1.555       .  S
C78         C330   1.546       .  S
C79          H86   1.086       .  S
C79          C80   1.362       .  D
C80          C81   1.530       .  S
C80         C162   1.480       .  S
C81          C85   1.523       .  S
C81          C83   1.532       .  S
C81          H87   1.112       .  S
C82          H88   1.085       .  S
C82          C83   1.375       .  D
C83         C249   1.493       .  S
C84          H89   1.078       .  S
C84          C85   1.358       .  D
C85         C150   1.469       .  S
C90          C91   1.536       .  S
C90          C96   1.543       .  S
C90          C94   1.552       .  S
C90         C294   1.540       .  S
C91          H98   1.087       .  S
C91          C92   1.361       .  D
C92          C93   1.537       .  S
C92         C177   1.484       .  S
C93          C97   1.529       .  S
C93          C95   1.538       .  S
C93          H99   1.108       .  S
C94         H100   1.086       .  S
C94          C95   1.375       .  D
C95         C141   1.495       .  S
C96         H101   1.080       .  S
C96          C97   1.358       .  D
C97         C153   1.472       .  S
C102        C103   1.546       .  S
C102        C108   1.538       .  S
C102        C106   1.552       .  S
C102        C357   1.548       .  S
C103        H110   1.085       .  S
C103        C104   1.371       .  D
C104        C105   1.547       .  S
C104        C138   1.506       .  S
C105        C109   1.534       .  S
C105        C107   1.542       .  S
C105        H111   1.110       .  S
C106        H112   1.081       .  S
C106        C107   1.364       .  D
C107        C201   1.493       .  S
C108        H113   1.086       .  S
C108        C109   1.365       .  D
C109        C129   1.486       .  S
C114        C115   1.544       .  S
C114        C120   1.551       .  S
C114        C118   1.544       .  S
C114        C318   1.545       .  S
C115        H122   1.086       .  S
C115        C116   1.367       .  D
C116        C117   1.536       .  S
C116        C222   1.486       .  S
C117        C121   1.532       .  S
C117        C119   1.534       .  S
C117        H123   1.110       .  S
C118        H124   1.086       .  S
C118        C119   1.366       .  D
C119        C165   1.483       .  S
C120        H125   1.080       .  S
C120        C121   1.364       .  D
C121        C126   1.488       .  S
C126        C127   1.404       .  A
C126        C131   1.414       .  A
C127        C128   1.398       .  A
C127        H136   1.084       .  S
C128        C129   1.414       .  A
C128        S132   1.802       .  S
C129        C130   1.404       .  A
C130        C131   1.401       .  A
C130        H137   1.084       .  S
C131        S133   1.799       .  S
S132        H135   1.400       .  S
S133        H134   1.405       .  S
C138        C139   1.401       .  A
C138        C143   1.420       .  A
C139        C140   1.395       .  A
C139        H148   1.067       .  S
C140        C141   1.411       .  A
C140        S144   1.805       .  S
C141        C142   1.406       .  A
C142        C143   1.411       .  A
C142        H149   1.082       .  S
C143        S145   1.804       .  S
S144        H147   1.407       .  S
S145        H146   1.406       .  S
C150        C151   1.400       .  A
C150        C155   1.412       .  A
C151        C152   1.396       .  A
C151        H160   1.084       .  S
C152        C153   1.410       .  A
C152        S156   1.799       .  S
C153        C154   1.401       .  A
C154        C155   1.392       .  A
C154        H161   1.084       .  S
C155        S157   1.805       .  S
S156        H159   1.406       .  S
S157        H158   1.405       .  S
C162        C163   1.400       .  A
C162        C167   1.412       .  A
C163        C164   1.399       .  A
C163        H172   1.083       .  S
C164        C165   1.412       .  A
C164        S168   1.806       .  S
C165        C166   1.404       .  A
C166        C167   1.404       .  A
C166        H173   1.083       .  S
C167        S169   1.807       .  S
S168        H171   1.407       .  S
S169        H170   1.407       .  S
C174        C175   1.405       .  A
C174        C179   1.412       .  A
C175        C176   1.398       .  A
C175        H184   1.083       .  S
C176        C177   1.411       .  A
C176        S180   1.800       .  S
C177        C178   1.406       .  A
C178        C179   1.397       .  A
C178        H185   1.084       .  S
C179        S181   1.803       .  S
S180        H183   1.405       .  S
S181        H182   1.406       .  S
C186        C187   1.400       .  A
C186        C191   1.417       .  A
C187        C188   1.399       .  A
C187        H196   1.076       .  S
C188        C189   1.410       .  A
C188        S192   1.802       .  S
C189        C190   1.404       .  A
C190        C191   1.406       .  A
C190        H197   1.084       .  S
C191        S193   1.808       .  S
S192        H195   1.404       .  S
S193        H194   1.398       .  S
C198        C199   1.408       .  A
C198        C203   1.411       .  A
C199        C200   1.407       .  A
C199        H208   1.082       .  S
C200        C201   1.412       .  A
C200        S204   1.804       .  S
C201        C202   1.398       .  A
C202        C203   1.401       .  A
C202        H209   1.070       .  S
C203        S205   1.800       .  S
S204        H207   1.407       .  S
S205        H206   1.405       .  S
C210        C211   1.401       .  A
C210        C215   1.412       .  A
C211        C212   1.395       .  A
C211        H220   1.085       .  S
C212        C213   1.408       .  A
C212        S216   1.798       .  S
C213        C214   1.403       .  A
C214        C215   1.400       .  A
C214        H221   1.084       .  S
C215        S217   1.807       .  S
S216        H219   1.406       .  S
S217        H218   1.402       .  S
C222        C223   1.397       .  A
C222        C227   1.413       .  A
C223        C224   1.397       .  A
C223        H232   1.082       .  S
C224        C225   1.421       .  A
C224        S228   1.803       .  S
C225        C226   1.411       .  A
C226        C227   1.407       .  A
C226        H233   1.083       .  S
C227        S229   1.804       .  S
S228        H231   1.407       .  S
S229        H230   1.405       .  S
C234        C235   1.402       .  A
C234        C239   1.414       .  A
C235        C236   1.401       .  A
C235        H244   1.082       .  S
C236        C237   1.416       .  A
C236        S240   1.804       .  S
C237        C238   1.400       .  A
C238        C239   1.400       .  A
C238        H245   1.078       .  S
C239        S241   1.803       .  S
S240        H243   1.401       .  S
S241        H242   1.403       .  S
C246        C247   1.411       .  A
C246        C251   1.412       .  A
C247        C248   1.410       .  A
C247        H256   1.083       .  S
C248        C249   1.414       .  A
C248        S252   1.802       .  S
C249        C250   1.404       .  A
C250        C251   1.396       .  A
C250        H257   1.083       .  S
C251        S253   1.794       .  S
S252        H255   1.406       .  S
S253        H254   1.404       .  S
C258        C259   1.399       .  A
C258        C263   1.415       .  A
C259        C260   1.396       .  A
C259        H268   1.078       .  S
C260        C261   1.417       .  A
C260        S264   1.804       .  S
C261        C262   1.408       .  A
C262        C263   1.401       .  A
C262        H269   1.084       .  S
C263        S265   1.804       .  S
S264        H267   1.407       .  S
S265        H266   1.407       .  S
C270        C271   1.415       .  A
C270        C275   1.422       .  A
C271        C272   1.401       .  A
C271        H280   1.075       .  S
C272        C273   1.409       .  A
C272        S276   1.803       .  S
C273        C274   1.404       .  A
C274        C275   1.399       .  A
C274        H281   1.082       .  S
C275        S277   1.815       .  S
S276        H644   1.408       .  S
S277        H278   1.406       .  S
H279        S641   1.408       .  S
C282        C283   1.402       .  A
C282        C287   1.411       .  A
C283        C284   1.405       .  A
C283        H292   1.082       .  S
C284        C285   1.425       .  A
C284        S288   1.812       .  S
C285        C286   1.413       .  A
C286        C287   1.403       .  A
C286        H293   1.072       .  S
C287        S289   1.811       .  S
S288        H291   1.405       .  S
S289        H290   1.406       .  S
C294        C295   1.416       .  A
C294        C299   1.422       .  A
C295        C296   1.396       .  A
C295        H304   1.073       .  S
C296        C297   1.405       .  A
C296        S300   1.806       .  S
C297        C298   1.401       .  A
C298        C299   1.403       .  A
C298        H305   1.081       .  S
C299        S301   1.808       .  S
S300        H303   1.408       .  S
S301        H302   1.407       .  S
C306        C307   1.400       .  A
C306        C311   1.408       .  A
C307        C308   1.405       .  A
C307        H316   1.083       .  S
C308        C309   1.426       .  A
C308        S312   1.812       .  S
C309        C310   1.413       .  A
C310        C311   1.400       .  A
C310        H317   1.075       .  S
C311        S313   1.805       .  S
S312        H315   1.407       .  S
S313        H314   1.404   1_545  S
C318        C319   1.416       .  A
C318        C323   1.424       .  A
C319        C320   1.401       .  A
C319        H328   1.075       .  S
C320        C321   1.406       .  A
C320        S324   1.807       .  S
C321        C322   1.399       .  A
C322        C323   1.405       .  A
C322        H329   1.082       .  S
C323        S325   1.811       .  S
S324        H327   1.402       .  S
S325        H326   1.407       .  S
C330        C331   1.418       .  A
C330        C335   1.421       .  A
C331        C332   1.399       .  A
C331        H340   1.072       .  S
C332        C333   1.405       .  A
C332        S336   1.804       .  S
C333        C334   1.404       .  A
C334        C335   1.405       .  A
C334        H341   1.081       .  S
C335        S337   1.808       .  S
S336        H339   1.406       .  S
S337        H338   1.407       .  S
C342        C343   1.403       .  A
C342        C347   1.402       .  A
C343        C344   1.410       .  A
C343        H352   1.083       .  S
C344        C345   1.426       .  A
C344        S348   1.811       .  S
C345        C346   1.416       .  A
C346        C347   1.394       .  A
C346        H353   1.072       .  S
C347        S349   1.802       .  S
S348        H351   1.407       .  S
S349        H350   1.407       .  S
C354        C355   1.401       .  A
C354        C359   1.412       .  A
C355        C356   1.407       .  A
C355        H364   1.083       .  S
C356        C357   1.425       .  A
C356        S360   1.808       .  S
C357        C358   1.413       .  A
C358        C359   1.400       .  A
C358        H365   1.075       .  S
C359        S361   1.800       .  S
S360        H363   1.406       .  S
S361        H362   1.407       .  S
O366        C374   1.296       .  A
O366      Co1481   2.116   1_556  S
O367        C375   1.274       .  A
O367      Co1847   2.031   1_556  S
O368        C376   1.271       .  A
O368      Co1118   1.974       .  S
O369        C377   1.258       .  A
O369       Co754   1.967       .  S
O370        C376   1.278       .  A
O370       Co387   2.023   1_556  S
O371        C377   1.265       .  A
O372        C375   1.261       .  A
O373        C374   1.263       .  A
O373       Co388   1.890       .  S
C374        C686   1.472       .  S
C375        C638   1.487       .  S
C376        C698   1.483       .  S
C377        C707   1.478       .  S
O378        C391   1.270       .  A
O378       Co386   1.972   1_455  S
O379        C392   1.259       .  A
O380        C393   1.298       .  A
O381        C394   1.276       .  A
O381       Co389   2.038       .  S
O382        C394   1.260       .  A
O382      Co1482   1.962       .  S
O383        C393   1.269       .  A
O383      Co1846   1.890       .  S
O384        C391   1.276       .  A
O384      Co1119   2.017       .  S
O385        C392   1.261       .  A
O385       Co753   2.000   1_545  S
Co386      O1461   2.116       .  S
Co386      O1843   1.892       .  S
Co387      O1827   2.035   1_554  S
Co387      O1477   1.959       .  S
Co387      O2580   2.029   1_554  S
Co388      O1098   1.970       .  S
Co388       O750   2.008   1_556  S
Co388      O1850   2.001   1_556  S
Co389       O734   1.974   1_545  S
Co389      O1114   2.020   1_545  S
Co389       O755   2.025       .  S
O390      Co2577   2.035       .  S
O390      Co1848   1.995   1_454  S
O390       Co754   2.018   1_554  S
C391        C647   1.483       .  S
C392        C662   1.479       .  S
C393        C719   1.486       .  S
C394        C671   1.485       .  S
C395        C396   1.544       .  S
C395        C401   1.537       .  S
C395        C399   1.550       .  S
C395        C635   1.542       .  S
C396        H403   1.086       .  S
C396        C397   1.367       .  D
C397        C398   1.542       .  S
C397        C611   1.497       .  S
C398        C402   1.545       .  S
C398        C400   1.543       .  S
C398        H404   1.109       .  S
C399        H405   1.079       .  S
C399        C400   1.371       .  D
C400        C623   1.494       .  S
C401        H406   1.087       .  S
C401        C402   1.357       .  D
C402        C599   1.488       .  S
C407        C408   1.545       .  S
C407        C413   1.544       .  S
C407        C411   1.547       .  S
C407        C710   1.546       .  S
C408        H415   1.086       .  S
C408        C409   1.371       .  D
C409        C410   1.536       .  S
C409        C626   1.498       .  S
C410        C414   1.537       .  S
C410        C412   1.535       .  S
C410        H416   1.100       .  S
C411        H417   1.086       .  S
C411        C412   1.373       .  D
C412        C590   1.499       .  S
C413        H418   1.079       .  S
C413        C414   1.354       .  D
C414        C575   1.471       .  S
C419        C420   1.554       .  S
C419        C425   1.531       .  S
C419        C423   1.545       .  S
C419        C650   1.542       .  S
C420        H427   1.080       .  S
C420        C421   1.368       .  D
C421        C422   1.540       .  S
C421        C563   1.496       .  S
C422        C426   1.536       .  S
C422        C424   1.545       .  S
C422        H428   1.110       .  S
C423        H429   1.086       .  S
C423        C424   1.368       .  D
C424        C551   1.486       .  S
C425        H430   1.087       .  S
C425        C426   1.355       .  D
C426        C578   1.472       .  S
C431        C432   1.541       .  S
C431        C437   1.556       .  S
C431        C435   1.539       .  S
C431        C674   1.548       .  S
C432        H439   1.086       .  S
C432        C433   1.362       .  D
C433        C434   1.539       .  S
C433        C554   1.483       .  S
C434        C438   1.533       .  S
C434        C436   1.534       .  S
C434        H440   1.111       .  S
C435        H441   1.086       .  S
C435        C436   1.368       .  D
C436        C539   1.481       .  S
C437        H442   1.080       .  S
C437        C438   1.368       .  D
C438        C602   1.490       .  S
C443        C444   1.542       .  S
C443        C449   1.545       .  S
C443        C447   1.553       .  S
C443        C695   1.546       .  S
C444        H451   1.085       .  S
C444        C445   1.365       .  D
C445        C446   1.533       .  S
C445        C527   1.483       .  S
C446        C450   1.522       .  S
C446        C448   1.531       .  S
C446        H452   1.112       .  S
C447        H453   1.086       .  S
C447        C448   1.373       .  D
C448        C614   1.489       .  S
C449        H454   1.078       .  S
C449        C450   1.358       .  D
C450        C515   1.469       .  S
C455        C456   1.536       .  S
C455        C461   1.542       .  S
C455        C459   1.551       .  S
C455        C659   1.542       .  S
C456        H463   1.087       .  S
C456        C457   1.360       .  D
C457        C458   1.534       .  S
C457        C542   1.481       .  S
C458        C462   1.528       .  S
C458        C460   1.537       .  S
C458        H464   1.108       .  S
C459        H465   1.086       .  S
C459        C460   1.374       .  D
C460        C506   1.492       .  S
C461        H466   1.079       .  S
C461        C462   1.360       .  D
C462        C518   1.473       .  S
C467        C468   1.544       .  S
C467        C473   1.537       .  S
C467        C471   1.553       .  S
C467        C722   1.546       .  S
C468        H475   1.085       .  S
C468        C469   1.370       .  D
C469        C470   1.548       .  S
C469        C503   1.504       .  S
C470        C474   1.535       .  S
C470        C472   1.543       .  S
C470        H476   1.110       .  S
C471        H477   1.081       .  S
C471        C472   1.365       .  D
C472        C566   1.495       .  S
C473        H478   1.086       .  S
C473        C474   1.364       .  D
C474        C494   1.486       .  S
C479        C480   1.544       .  S
C479        C485   1.552       .  S
C479        C483   1.543       .  S
C479        C683   1.544       .  S
C480        H487   1.086       .  S
C480        C481   1.366       .  D
C481        C482   1.536       .  S
C481        C587   1.484       .  S
C482        C486   1.532       .  S
C482        C484   1.533       .  S
C482        H488   1.110       .  S
C483        H489   1.086       .  S
C483        C484   1.366       .  D
C484        C530   1.485       .  S
C485        H490   1.080       .  S
C485        C486   1.364       .  D
C486        C491   1.487       .  S
C491        C492   1.403       .  A
C491        C496   1.413       .  A
C492        C493   1.398       .  A
C492        H501   1.084       .  S
C493        C494   1.415       .  A
C493        S497   1.802       .  S
C494        C495   1.403       .  A
C495        C496   1.400       .  A
C495        H502   1.084       .  S
C496        S498   1.799       .  S
S497        H500   1.400       .  S
S498        H499   1.406       .  S
C503        C504   1.399       .  A
C503        C508   1.420       .  A
C504        C505   1.394       .  A
C504        H513   1.071       .  S
C505        C506   1.410       .  A
C505        S509   1.805       .  S
C506        C507   1.405       .  A
C507        C508   1.411       .  A
C507        H514   1.083       .  S
C508        S510   1.805       .  S
S509        H512   1.406       .  S
S510        H511   1.407       .  S
C515        C516   1.402       .  A
C515        C520   1.412       .  A
C516        C517   1.397       .  A
C516        H525   1.084       .  S
C517        C518   1.412       .  A
C517        S521   1.800       .  S
C518        C519   1.401       .  A
C519        C520   1.389       .  A
C519        H526   1.084       .  S
C520        S522   1.806       .  S
S521        H524   1.406       .  S
S522        H523   1.405       .  S
C527        C528   1.402       .  A
C527        C532   1.413       .  A
C528        C529   1.400       .  A
C528        H537   1.083       .  S
C529        C530   1.413       .  A
C529        S533   1.807       .  S
C530        C531   1.404       .  A
C531        C532   1.403       .  A
C531        H538   1.083       .  S
C532        S534   1.808       .  S
S533        H536   1.407       .  S
S534        H535   1.406       .  S
C539        C540   1.405       .  A
C539        C544   1.411       .  A
C540        C541   1.398       .  A
C540        H549   1.083       .  S
C541        C542   1.412       .  A
C541        S545   1.801       .  S
C542        C543   1.405       .  A
C543        C544   1.396       .  A
C543        H550   1.084       .  S
C544        S546   1.803       .  S
S545        H548   1.405       .  S
S546        H547   1.406       .  S
C551        C552   1.398       .  A
C551        C556   1.416       .  A
C552        C553   1.396       .  A
C552        H561   1.074       .  S
C553        C554   1.408       .  A
C553        S557   1.802       .  S
C554        C555   1.406       .  A
C555        C556   1.407       .  A
C555        H562   1.084       .  S
C556        S558   1.808       .  S
S557        H560   1.404       .  S
S558        H559   1.401       .  S
C563        C564   1.408       .  A
C563        C568   1.411       .  A
C564        C565   1.408       .  A
C564        H573   1.083       .  S
C565        C566   1.413       .  A
C565        S569   1.804       .  S
C566        C567   1.398       .  A
C567        C568   1.401       .  A
C567        H574   1.074       .  S
C568        S570   1.800       .  S
S569        H572   1.407       .  S
S570        H571   1.406       .  S
C575        C576   1.400       .  A
C575        C580   1.412       .  A
C576        C577   1.394       .  A
C576        H585   1.085       .  S
C577        C578   1.410       .  A
C577        S581   1.797       .  S
C578        C579   1.402       .  A
C579        C580   1.398       .  A
C579        H586   1.084       .  S
C580        S582   1.808       .  S
S581        H584   1.405       .  S
S582        H583   1.402       .  S
C587        C588   1.396       .  A
C587        C592   1.413       .  A
C588        C589   1.395       .  A
C588        H597   1.083       .  S
C589        C590   1.420       .  A
C589        S593   1.801       .  S
C590        C591   1.410       .  A
C591        C592   1.405       .  A
C591        H598   1.083       .  S
C592        S594   1.803       .  S
S593        H596   1.408       .  S
S594        H595   1.405       .  S
C599        C600   1.402       .  A
C599        C604   1.414       .  A
C600        C601   1.402       .  A
C600        H609   1.081       .  S
C601        C602   1.416       .  A
C601        S605   1.804       .  S
C602        C603   1.400       .  A
C603        C604   1.400       .  A
C603        H610   1.077       .  S
C604        S606   1.803       .  S
S605        H608   1.402       .  S
S606        H607   1.403       .  S
C611        C612   1.409       .  A
C611        C616   1.411       .  A
C612        C613   1.409       .  A
C612        H621   1.084       .  S
C613        C614   1.413       .  A
C613        S617   1.802       .  S
C614        C615   1.403       .  A
C615        C616   1.396       .  A
C615        H622   1.084       .  S
C616        S618   1.794       .  S
S617        H620   1.406       .  S
S618        H619   1.405       .  S
C623        C624   1.397       .  A
C623        C628   1.414       .  A
C624        C625   1.396       .  A
C624        H633   1.078       .  S
C625        C626   1.419       .  A
C625        S629   1.804       .  S
C626        C627   1.409       .  A
C627        C628   1.403       .  A
C627        H634   1.084       .  S
C628        S630   1.804       .  S
S629        H632   1.407       .  S
S630        H631   1.408       .  S
C635        C636   1.416       .  A
C635        C640   1.423       .  A
C636        C637   1.404       .  A
C636        H645   1.075       .  S
C637        C638   1.411       .  A
C637        S641   1.803       .  S
C638        C639   1.403       .  A
C639        C640   1.399       .  A
C639        H646   1.082       .  S
C640        S642   1.813       .  S
S642        H643   1.407       .  S
C647        C648   1.402       .  A
C647        C652   1.409       .  A
C648        C649   1.405       .  A
C648        H657   1.082       .  S
C649        C650   1.426       .  A
C649        S653   1.812       .  S
C650        C651   1.413       .  A
C651        C652   1.401       .  A
C651        H658   1.072       .  S
C652        S654   1.810       .  S
S653        H656   1.406       .  S
S654        H655   1.407       .  S
C659        C660   1.416       .  A
C659        C664   1.422       .  A
C660        C661   1.397       .  A
C660        H669   1.073       .  S
C661        C662   1.406       .  A
C661        S665   1.805       .  S
C662        C663   1.402       .  A
C663        C664   1.404       .  A
C663        H670   1.081       .  S
C664        S666   1.809       .  S
S665        H668   1.408       .  S
S666        H667   1.407       .  S
C671        C672   1.401       .  A
C671        C676   1.410       .  A
C672        C673   1.407       .  A
C672        H681   1.083       .  S
C673        C674   1.427       .  A
C673        S677   1.811       .  S
C674        C675   1.414       .  A
C675        C676   1.401       .  A
C675        H682   1.074       .  S
C676        S678   1.805       .  S
S677        H680   1.407       .  S
S678        H679   1.406       .  S
C683        C684   1.416       .  A
C683        C688   1.425       .  A
C684        C685   1.399       .  A
C684        H693   1.074       .  S
C685        C686   1.403       .  A
C685        S689   1.800       .  S
C686        C687   1.398       .  A
C687        C688   1.404       .  A
C687        H694   1.082       .  S
C688        S690   1.811       .  S
S689        H692   1.404       .  S
S690        H691   1.407       .  S
C695        C696   1.420       .  A
C695        C700   1.419       .  A
C696        C697   1.400       .  A
C696        H705   1.073       .  S
C697        C698   1.405       .  A
C697        S701   1.804       .  S
C698        C699   1.404       .  A
C699        C700   1.403       .  A
C699        H706   1.080       .  S
C700        S702   1.807       .  S
S701        H704   1.407       .  S
S702        H703   1.407       .  S
C707        C708   1.403       .  A
C707        C712   1.405       .  A
C708        C709   1.408       .  A
C708        H717   1.083       .  S
C709        C710   1.424       .  A
C709        S713   1.811       .  S
C710        C711   1.416       .  A
C711        C712   1.395       .  A
C711        H718   1.072       .  S
C712        S714   1.804       .  S
S713        H716   1.407       .  S
S714        H715   1.406       .  S
C719        C720   1.401       .  A
C719        C724   1.412       .  A
C720        C721   1.406       .  A
C720        H729   1.083       .  S
C721        C722   1.425       .  A
C721        S725   1.808       .  S
C722        C723   1.412       .  A
C723        C724   1.399       .  A
C723        H730   1.075       .  S
C724        S726   1.799       .  S
S725        H728   1.405       .  S
S726        H727   1.407       .  S
O731        C739   1.297       .  A
O731      Co2576   2.118       .  S
O732        C740   1.275       .  A
O732      Co2212   2.037       .  S
O733        C741   1.272       .  A
O734        C742   1.258       .  A
O735        C741   1.276       .  A
O735       Co752   2.017       .  S
O736        C742   1.263       .  A
O736      Co1116   2.011   1_455  S
O737        C740   1.261       .  A
O737      Co1119   1.958       .  S
O738        C739   1.263       .  A
O738       Co753   1.893       .  S
C739       C1051   1.473       .  S
C740       C1003   1.491       .  S
C741       C1063   1.483       .  S
C742       C1072   1.475       .  S
O743        C756   1.272       .  A
O743       Co751   1.973   1_455  S
O744        C757   1.259       .  A
O744      Co1117   1.974       .  S
O745        C758   1.297       .  A
O745      Co1118   2.117   1_564  S
O746        C759   1.274       .  A
O746       Co754   2.024   1_554  S
O747        C759   1.262       .  A
O747      Co2577   1.966       .  S
O748        C758   1.268       .  A
O748      Co2211   1.890       .  S
O749        C756   1.276       .  A
O750        C757   1.262       .  A
Co751      O2556   2.116   1_554  S
Co751      O1101   2.013   1_654  S
Co751      O2208   1.897       .  S
Co751      O1120   2.012   1_664  S
Co752      O2192   2.037       .  S
Co752      O1109   1.971       .  S
Co752      O2572   1.953       .  S
Co752      O1485   2.030       .  S
Co753      O1110   2.113       .  S
Co753      O2215   2.002   1_565  S
Co754      O1102   1.957       .  S
O755      Co1116   2.010   1_445  S
O755      Co1482   2.033       .  S
O755      Co2213   2.001   1_445  S
C756       C1012   1.482       .  S
C757       C1027   1.481       .  S
C758       C1084   1.485       .  S
C759       C1036   1.476       .  S
C760        C761   1.544       .  S
C760        C766   1.537       .  S
C760        C764   1.552       .  S
C760       C1000   1.544       .  S
C761        H768   1.086       .  S
C761        C762   1.369       .  D
C762        C763   1.542       .  S
C762        C976   1.497       .  S
C763        C767   1.542       .  S
C763        C765   1.537       .  S
C763        H769   1.109       .  S
C764        H770   1.079       .  S
C764        C765   1.371       .  D
C765        C988   1.492       .  S
C766        H771   1.087       .  S
C766        C767   1.356       .  D
C767        C964   1.483       .  S
C772        C773   1.538       .  S
C772        C778   1.543       .  S
C772        C776   1.548       .  S
C772       C1075   1.545       .  S
C773        H780   1.086       .  S
C773        C774   1.366       .  D
C774        C775   1.537       .  S
C774        C991   1.493       .  S
C775        C779   1.539       .  S
C775        C777   1.539       .  S
C775        H781   1.101       .  S
C776        H782   1.086       .  S
C776        C777   1.376       .  D
C777        C955   1.504       .  S
C778        H783   1.079       .  S
C778        C779   1.355       .  D
C779        C940   1.473       .  S
C784        C785   1.553       .  S
C784        C790   1.533       .  S
C784        C788   1.549       .  S
C784       C1015   1.543       .  S
C785        H792   1.081       .  S
C785        C786   1.366       .  D
C786        C787   1.538       .  S
C786        C928   1.491       .  S
C787        C791   1.537       .  S
C787        C789   1.543       .  S
C787        H793   1.111       .  S
C788        H794   1.085       .  S
C788        C789   1.370       .  D
C789        C916   1.489       .  S
C790        H795   1.087       .  S
C790        C791   1.356       .  D
C791        C943   1.474       .  S
C796        C797   1.544       .  S
C796        C802   1.551       .  S
C796        C800   1.537       .  S
C796       C1039   1.542       .  S
C797        H804   1.086       .  S
C797        C798   1.364       .  D
C798        C799   1.541       .  S
C798        C919   1.487       .  S
C799        C803   1.537       .  S
C799        C801   1.535       .  S
C799        H805   1.111       .  S
C800        H806   1.086       .  S
C800        C801   1.366       .  D
C801        C904   1.481       .  S
C802        H807   1.080       .  S
C802        C803   1.363       .  D
C803        C967   1.486       .  S
C808        C809   1.542       .  S
C808        C814   1.547       .  S
C808        C812   1.553       .  S
C808       C1060   1.546       .  S
C809        H816   1.086       .  S
C809        C810   1.365       .  D
C810        C811   1.531       .  S
C810        C892   1.479       .  S
C811        C815   1.522       .  S
C811        C813   1.529       .  S
C811        H817   1.112       .  S
C812        H818   1.086       .  S
C812        C813   1.373       .  D
C813        C979   1.488       .  S
C814        H819   1.079       .  S
C814        C815   1.359       .  D
C815        C880   1.470       .  S
C820        C821   1.535       .  S
C820        C826   1.543       .  S
C820        C824   1.552       .  S
C820       C1024   1.544       .  S
C821        H828   1.087       .  S
C821        C822   1.361       .  D
C822        C823   1.536       .  S
C822        C907   1.483       .  S
C823        C827   1.531       .  S
C823        C825   1.540       .  S
C823        H829   1.109       .  S
C824        H830   1.086       .  S
C824        C825   1.375       .  D
C825        C871   1.496       .  S
C826        H831   1.079       .  S
C826        C827   1.359       .  D
C827        C883   1.475       .  S
C832        C833   1.547       .  S
C832        C838   1.538       .  S
C832        C836   1.550       .  S
C832       C1087   1.546       .  S
C833        H840   1.085       .  S
C833        C834   1.372       .  D
C834        C835   1.547       .  S
C834        C868   1.506       .  S
C835        C839   1.538       .  S
C835        C837   1.541       .  S
C835        H841   1.110       .  S
C836        H842   1.081       .  S
C836        C837   1.362       .  D
C837        C931   1.490       .  S
C838        H843   1.086       .  S
C838        C839   1.365       .  D
C839        C859   1.490       .  S
C844        C845   1.544       .  S
C844        C850   1.554       .  S
C844        C848   1.540       .  S
C844       C1048   1.545       .  S
C845        H852   1.086       .  S
C845        C846   1.367       .  D
C846        C847   1.536       .  S
C846        C952   1.487       .  S
C847        C851   1.535       .  S
C847        C849   1.534       .  S
C847        H853   1.110       .  S
C848        H854   1.086       .  S
C848        C849   1.363       .  D
C849        C895   1.482       .  S
C850        H855   1.080       .  S
C850        C851   1.367       .  D
C851        C856   1.493       .  S
C856        C857   1.405       .  A
C856        C861   1.414       .  A
C857        C858   1.400       .  A
C857        H866   1.084       .  S
C858        C859   1.417       .  A
C858        S862   1.803       .  S
C859        C860   1.404       .  A
C860        C861   1.401       .  A
C860        H867   1.084       .  S
C861        S863   1.799       .  S
S862        H865   1.400       .  S
S863        H864   1.405       .  S
C868        C869   1.401       .  A
C868        C873   1.420       .  A
C869        C870   1.397       .  A
C869        H878   1.069       .  S
C870        C871   1.410       .  A
C870        S874   1.805       .  S
C871        C872   1.406       .  A
C872        C873   1.413       .  A
C872        H879   1.082       .  S
C873        S875   1.804       .  S
S874        H877   1.406       .  S
S875        H876   1.407       .  S
C880        C881   1.402       .  A
C880        C885   1.412       .  A
C881        C882   1.397       .  A
C881        H890   1.084       .  S
C882        C883   1.411       .  A
C882        S886   1.799       .  S
C883        C884   1.402       .  A
C884        C885   1.391       .  A
C884        H891   1.084       .  S
C885        S887   1.806       .  S
S886        H889   1.406       .  S
S887        H888   1.404       .  S
C892        C893   1.401       .  A
C892        C897   1.411       .  A
C893        C894   1.400       .  A
C893        H902   1.083       .  S
C894        C895   1.411       .  A
C894        S898   1.805       .  S
C895        C896   1.403       .  A
C896        C897   1.403       .  A
C896        H903   1.083       .  S
C897        S899   1.807       .  S
S898        H901   1.407       .  S
S899        H900   1.407       .  S
C904        C905   1.405       .  A
C904        C909   1.412       .  A
C905        C906   1.398       .  A
C905        H914   1.084       .  S
C906        C907   1.412       .  A
C906        S910   1.799       .  S
C907        C908   1.405       .  A
C908        C909   1.395       .  A
C908        H915   1.084       .  S
C909        S911   1.803       .  S
S910        H913   1.405       .  S
S911        H912   1.405       .  S
C916        C917   1.397       .  A
C916        C921   1.418       .  A
C917        C918   1.395       .  A
C917        H926   1.072       .  S
C918        C919   1.407       .  A
C918        S922   1.799       .  S
C919        C920   1.407       .  A
C920        C921   1.410       .  A
C920        H927   1.083       .  S
C921        S923   1.807       .  S
S922        H925   1.405       .  S
S923        H924   1.401       .  S
C928        C929   1.407       .  A
C928        C933   1.410       .  A
C929        C930   1.407       .  A
C929        H938   1.083       .  S
C930        C931   1.411       .  A
C930        S934   1.804       .  S
C931        C932   1.398       .  A
C932        C933   1.400       .  A
C932        H939   1.073       .  S
C933        S935   1.799       .  S
S934        H937   1.406       .  S
S935        H936   1.406       .  S
C940        C941   1.399       .  A
C940        C945   1.411       .  A
C941        C942   1.395       .  A
C941        H950   1.085       .  S
C942        C943   1.412       .  A
C942        S946   1.800       .  S
C943        C944   1.403       .  A
C944        C945   1.398       .  A
C944        H951   1.084       .  S
C945        S947   1.806       .  S
S946        H949   1.403       .  S
S947        H948   1.403       .  S
C952        C953   1.398       .  A
C952        C957   1.412       .  A
C953        C954   1.398       .  A
C953        H962   1.082       .  S
C954        C955   1.422       .  A
C954        S958   1.804       .  S
C955        C956   1.411       .  A
C956        C957   1.404       .  A
C956        H963   1.083       .  S
C957        S959   1.803       .  S
S958        H961   1.407       .  S
S959        H960   1.404       .  S
C964        C965   1.401       .  A
C964        C969   1.413       .  A
C965        C966   1.400       .  A
C965        H974   1.081       .  S
C966        C967   1.417       .  A
C966        S970   1.804       .  S
C967        C968   1.399       .  A
C968        C969   1.398       .  A
C968        H975   1.074       .  S
C969        S971   1.804       .  S
S970        H973   1.399       .  S
S971        H972   1.402       .  S
C976        C977   1.410       .  A
C976        C981   1.412       .  A
C977        C978   1.408       .  A
C977        H986   1.084       .  S
C978        C979   1.412       .  A
C978        S982   1.802       .  S
C979        C980   1.403       .  A
C980        C981   1.397       .  A
C980        H987   1.083       .  S
C981        S983   1.795       .  S
S982        H985   1.406       .  S
S983        H984   1.405       .  S
C988        C989   1.401       .  A
C988        C993   1.414       .  A
C989        C990   1.399       .  A
C989        H998   1.079       .  S
C990        C991   1.415       .  A
C990        S994   1.805       .  S
C991        C992   1.408       .  A
C992        C993   1.401       .  A
C992        H999   1.084       .  S
C993        S995   1.804       .  S
S994        H997   1.407       .  S
S995        H996   1.407       .  S
C1000      C1001   1.415       .  A
C1000      C1005   1.423       .  A
C1001      C1002   1.405       .  A
C1001      H1010   1.075       .  S
C1002      C1003   1.411       .  A
C1002      S1006   1.802       .  S
C1003      C1004   1.405       .  A
C1004      C1005   1.401       .  A
C1004      H1011   1.082       .  S
C1005      S1007   1.814       .  S
S1006      H1374   1.408       .  S
S1007      H1008   1.407       .  S
H1009      S1371   1.407       .  S
C1012      C1013   1.401       .  A
C1012      C1017   1.409       .  A
C1013      C1014   1.404       .  A
C1013      H1022   1.083       .  S
C1014      C1015   1.425       .  A
C1014      S1018   1.810       .  S
C1015      C1016   1.414       .  A
C1016      C1017   1.402       .  A
C1016      H1023   1.072       .  S
C1017      S1019   1.810       .  S
S1018      H1021   1.405       .  S
S1019      H1020   1.406       .  S
C1024      C1025   1.416       .  A
C1024      C1029   1.423       .  A
C1025      C1026   1.397       .  A
C1025      H1034   1.073       .  S
C1026      C1027   1.406       .  A
C1026      S1030   1.805       .  S
C1027      C1028   1.403       .  A
C1028      C1029   1.406       .  A
C1028      H1035   1.081       .  S
C1029      S1031   1.809       .  S
S1030      H1033   1.408       .  S
S1031      H1032   1.407       .  S
C1036      C1037   1.400       .  A
C1036      C1041   1.406       .  A
C1037      C1038   1.402       .  A
C1037      H1046   1.083       .  S
C1038      C1039   1.425       .  A
C1038      S1042   1.811       .  S
C1039      C1040   1.415       .  A
C1040      C1041   1.399       .  A
C1040      H1047   1.075       .  S
C1041      S1043   1.804       .  S
S1042      H1045   1.407       .  S
S1043      H1044   1.405       .  S
C1048      C1049   1.415       .  A
C1048      C1053   1.427       .  A
C1049      C1050   1.398       .  A
C1049      H1058   1.074       .  S
C1050      C1051   1.402       .  A
C1050      S1054   1.799       .  S
C1051      C1052   1.399       .  A
C1052      C1053   1.407       .  A
C1052      H1059   1.083       .  S
C1053      S1055   1.811       .  S
S1054      H1057   1.404       .  S
S1055      H1056   1.407       .  S
C1060      C1061   1.419       .  A
C1060      C1065   1.420       .  A
C1061      C1062   1.400       .  A
C1061      H1070   1.072       .  S
C1062      C1063   1.405       .  A
C1062      S1066   1.804       .  S
C1063      C1064   1.405       .  A
C1064      C1065   1.404       .  A
C1064      H1071   1.081       .  S
C1065      S1067   1.809       .  S
S1066      H1069   1.407       .  S
S1067      H1068   1.407       .  S
C1072      C1073   1.401       .  A
C1072      C1077   1.403       .  A
C1073      C1074   1.407       .  A
C1073      H1082   1.083       .  S
C1074      C1075   1.425       .  A
C1074      S1078   1.811       .  S
C1075      C1076   1.416       .  A
C1076      C1077   1.395       .  A
C1076      H1083   1.072       .  S
C1077      S1079   1.802       .  S
S1078      H1081   1.407       .  S
S1079      H1080   1.406       .  S
C1084      C1085   1.401       .  A
C1084      C1089   1.411       .  A
C1085      C1086   1.406       .  A
C1085      H1094   1.083       .  S
C1086      C1087   1.424       .  A
C1086      S1090   1.806       .  S
C1087      C1088   1.413       .  A
C1088      C1089   1.399       .  A
C1088      H1095   1.075       .  S
C1089      S1091   1.800       .  S
S1090      H1093   1.405       .  S
S1091      H1092   1.407       .  S
O1096      C1104   1.297       .  A
O1096     Co2211   2.116   1_556  S
O1097      C1105   1.274       .  A
O1097     Co2577   2.035   1_556  S
O1098      C1106   1.270       .  A
O1099      C1107   1.259       .  A
O1100      C1106   1.279       .  A
O1100     Co1117   2.026   1_556  S
O1101      C1107   1.264       .  A
O1102      C1105   1.261       .  A
O1103      C1104   1.264       .  A
O1103     Co1118   1.889   1_565  S
C1104      C1416   1.470       .  S
C1105      C1368   1.487       .  S
C1106      C1428   1.483       .  S
C1107      C1437   1.476       .  S
O1108      C1121   1.270       .  A
O1108     Co1116   1.972   1_455  S
O1109      C1122   1.259       .  A
O1110      C1123   1.297       .  A
O1111      C1124   1.274       .  A
O1111     Co1119   2.028       .  S
O1112      C1124   1.261       .  A
O1112     Co2212   1.963       .  S
O1113      C1123   1.269       .  A
O1113     Co2576   1.890       .  S
O1114      C1121   1.277       .  A
O1115      C1122   1.263       .  A
Co1116     O2191   2.116       .  S
Co1116     O2573   1.888       .  S
Co1117     O2557   2.027   1_554  S
Co1117     O2207   1.962       .  S
Co1117     O1850   2.035       .  S
Co1118     O2580   1.999       .  S
O1120     Co1847   2.031   1_556  S
O1120     Co2578   2.003   1_455  S
C1121      C1377   1.483       .  S
C1122      C1392   1.476       .  S
C1123      C1449   1.486       .  S
C1124      C1401   1.479       .  S
C1125      C1126   1.545       .  S
C1125      C1131   1.537       .  S
C1125      C1129   1.549       .  S
C1125      C1365   1.543       .  S
C1126      H1133   1.086       .  S
C1126      C1127   1.368       .  D
C1127      C1128   1.542       .  S
C1127      C1341   1.497       .  S
C1128      C1132   1.544       .  S
C1128      C1130   1.540       .  S
C1128      H1134   1.109       .  S
C1129      H1135   1.079       .  S
C1129      C1130   1.370       .  D
C1130      C1353   1.492       .  S
C1131      H1136   1.087       .  S
C1131      C1132   1.357       .  D
C1132      C1329   1.486       .  S
C1137      C1138   1.540       .  S
C1137      C1143   1.543       .  S
C1137      C1141   1.551       .  S
C1137      C1440   1.548       .  S
C1138      H1145   1.086       .  S
C1138      C1139   1.368       .  D
C1139      C1140   1.534       .  S
C1139      C1356   1.497       .  S
C1140      C1144   1.538       .  S
C1140      C1142   1.540       .  S
C1140      H1146   1.099       .  S
C1141      H1147   1.085       .  S
C1141      C1142   1.378       .  D
C1142      C1320   1.505       .  S
C1143      H1148   1.081       .  S
C1143      C1144   1.354       .  D
C1144      C1305   1.472       .  S
C1149      C1150   1.554       .  S
C1149      C1155   1.533       .  S
C1149      C1153   1.545       .  S
C1149      C1380   1.542       .  S
C1150      H1157   1.081       .  S
C1150      C1151   1.368       .  D
C1151      C1152   1.537       .  S
C1151      C1293   1.492       .  S
C1152      C1156   1.535       .  S
C1152      C1154   1.543       .  S
C1152      H1158   1.111       .  S
C1153      H1159   1.086       .  S
C1153      C1154   1.367       .  D
C1154      C1281   1.485       .  S
C1155      H1160   1.087       .  S
C1155      C1156   1.357       .  D
C1156      C1308   1.472       .  S
C1161      C1162   1.542       .  S
C1161      C1167   1.554       .  S
C1161      C1165   1.538       .  S
C1161      C1404   1.543       .  S
C1162      H1169   1.086       .  S
C1162      C1163   1.363       .  D
C1163      C1164   1.540       .  S
C1163      C1284   1.483       .  S
C1164      C1168   1.535       .  S
C1164      C1166   1.535       .  S
C1164      H1170   1.111       .  S
C1165      H1171   1.086       .  S
C1165      C1166   1.367       .  D
C1166      C1269   1.480       .  S
C1167      H1172   1.080       .  S
C1167      C1168   1.365       .  D
C1168      C1332   1.488       .  S
C1173      C1174   1.541       .  S
C1173      C1179   1.547       .  S
C1173      C1177   1.554       .  S
C1173      C1425   1.546       .  S
C1174      H1181   1.086       .  S
C1174      C1175   1.363       .  D
C1175      C1176   1.534       .  S
C1175      C1257   1.481       .  S
C1176      C1180   1.524       .  S
C1176      C1178   1.529       .  S
C1176      H1182   1.112       .  S
C1177      H1183   1.086       .  S
C1177      C1178   1.373       .  D
C1178      C1344   1.489       .  S
C1179      H1184   1.079       .  S
C1179      C1180   1.360       .  D
C1180      C1245   1.471       .  S
C1185      C1186   1.535       .  S
C1185      C1191   1.543       .  S
C1185      C1189   1.549       .  S
C1185      C1389   1.539       .  S
C1186      H1193   1.087       .  S
C1186      C1187   1.361       .  D
C1187      C1188   1.535       .  S
C1187      C1272   1.480       .  S
C1188      C1192   1.529       .  S
C1188      C1190   1.538       .  S
C1188      H1194   1.109       .  S
C1189      H1195   1.086       .  S
C1189      C1190   1.373       .  D
C1190      C1236   1.492       .  S
C1191      H1196   1.079       .  S
C1191      C1192   1.358       .  D
C1192      C1248   1.473       .  S
C1197      C1198   1.545       .  S
C1197      C1203   1.537       .  S
C1197      C1201   1.550       .  S
C1197      C1452   1.545       .  S
C1198      H1205   1.085       .  S
C1198      C1199   1.371       .  D
C1199      C1200   1.547       .  S
C1199      C1233   1.504       .  S
C1200      C1204   1.536       .  S
C1200      C1202   1.544       .  S
C1200      H1206   1.110       .  S
C1201      H1207   1.082       .  S
C1201      C1202   1.363       .  D
C1202      C1296   1.492       .  S
C1203      H1208   1.086       .  S
C1203      C1204   1.364       .  D
C1204      C1224   1.488       .  S
C1209      C1210   1.542       .  S
C1209      C1215   1.551       .  S
C1209      C1213   1.543       .  S
C1209      C1413   1.543       .  S
C1210      H1217   1.086       .  S
C1210      C1211   1.365       .  D
C1211      C1212   1.537       .  S
C1211      C1317   1.487       .  S
C1212      C1216   1.534       .  S
C1212      C1214   1.535       .  S
C1212      H1218   1.110       .  S
C1213      H1219   1.086       .  S
C1213      C1214   1.365       .  D
C1214      C1260   1.483       .  S
C1215      H1220   1.080       .  S
C1215      C1216   1.366       .  D
C1216      C1221   1.490       .  S
C1221      C1222   1.404       .  A
C1221      C1226   1.414       .  A
C1222      C1223   1.398       .  A
C1222      H1231   1.084       .  S
C1223      C1224   1.415       .  A
C1223      S1227   1.803       .  S
C1224      C1225   1.404       .  A
C1225      C1226   1.403       .  A
C1225      H1232   1.084       .  S
C1226      S1228   1.799       .  S
S1227      H1230   1.399       .  S
S1228      H1229   1.405       .  S
C1233      C1234   1.401       .  A
C1233      C1238   1.420       .  A
C1234      C1235   1.396       .  A
C1234      H1243   1.070       .  S
C1235      C1236   1.410       .  A
C1235      S1239   1.806       .  S
C1236      C1237   1.404       .  A
C1237      C1238   1.408       .  A
C1237      H1244   1.082       .  S
C1238      S1240   1.803       .  S
S1239      H1242   1.406       .  S
S1240      H1241   1.407       .  S
C1245      C1246   1.402       .  A
C1245      C1250   1.413       .  A
C1246      C1247   1.397       .  A
C1246      H1255   1.084       .  S
C1247      C1248   1.410       .  A
C1247      S1251   1.799       .  S
C1248      C1249   1.401       .  A
C1249      C1250   1.391       .  A
C1249      H1256   1.084       .  S
C1250      S1252   1.806       .  S
S1251      H1254   1.406       .  S
S1252      H1253   1.404       .  S
C1257      C1258   1.401       .  A
C1257      C1262   1.413       .  A
C1258      C1259   1.399       .  A
C1258      H1267   1.083       .  S
C1259      C1260   1.411       .  A
C1259      S1263   1.806       .  S
C1260      C1261   1.404       .  A
C1261      C1262   1.404       .  A
C1261      H1268   1.083       .  S
C1262      S1264   1.807       .  S
S1263      H1266   1.407       .  S
S1264      H1265   1.407       .  S
C1269      C1270   1.404       .  A
C1269      C1274   1.412       .  A
C1270      C1271   1.397       .  A
C1270      H1279   1.083       .  S
C1271      C1272   1.411       .  A
C1271      S1275   1.800       .  S
C1272      C1273   1.405       .  A
C1273      C1274   1.396       .  A
C1273      H1280   1.084       .  S
C1274      S1276   1.803       .  S
S1275      H1278   1.405       .  S
S1276      H1277   1.406       .  S
C1281      C1282   1.398       .  A
C1281      C1286   1.417       .  A
C1282      C1283   1.395       .  A
C1282      H1291   1.075       .  S
C1283      C1284   1.407       .  A
C1283      S1287   1.800       .  S
C1284      C1285   1.406       .  A
C1285      C1286   1.407       .  A
C1285      H1292   1.083       .  S
C1286      S1288   1.807       .  S
S1287      H1290   1.405       .  S
S1288      H1289   1.402       .  S
C1293      C1294   1.407       .  A
C1293      C1298   1.410       .  A
C1294      C1295   1.408       .  A
C1294      H1303   1.083       .  S
C1295      C1296   1.413       .  A
C1295      S1299   1.804       .  S
C1296      C1297   1.398       .  A
C1297      C1298   1.400       .  A
C1297      H1304   1.073       .  S
C1298      S1300   1.800       .  S
S1299      H1302   1.406       .  S
S1300      H1301   1.406       .  S
C1305      C1306   1.400       .  A
C1305      C1310   1.411       .  A
C1306      C1307   1.394       .  A
C1306      H1315   1.085       .  S
C1307      C1308   1.410       .  A
C1307      S1311   1.799       .  S
C1308      C1309   1.403       .  A
C1309      C1310   1.398       .  A
C1309      H1316   1.084       .  S
C1310      S1312   1.807       .  S
S1311      H1314   1.404       .  S
S1312      H1313   1.403       .  S
C1317      C1318   1.397       .  A
C1317      C1322   1.413       .  A
C1318      C1319   1.397       .  A
C1318      H1327   1.082       .  S
C1319      C1320   1.423       .  A
C1319      S1323   1.804       .  S
C1320      C1321   1.411       .  A
C1321      C1322   1.406       .  A
C1321      H1328   1.083       .  S
C1322      S1324   1.804       .  S
S1323      H1326   1.407       .  S
S1324      H1325   1.405       .  S
C1329      C1330   1.402       .  A
C1329      C1334   1.411       .  A
C1330      C1331   1.403       .  A
C1330      H1339   1.082       .  S
C1331      C1332   1.417       .  A
C1331      S1335   1.804       .  S
C1332      C1333   1.399       .  A
C1333      C1334   1.398       .  A
C1333      H1340   1.074       .  S
C1334      S1336   1.802       .  S
S1335      H1338   1.401       .  S
S1336      H1337   1.404       .  S
C1341      C1342   1.409       .  A
C1341      C1346   1.412       .  A
C1342      C1343   1.408       .  A
C1342      H1351   1.084       .  S
C1343      C1344   1.413       .  A
C1343      S1347   1.803       .  S
C1344      C1345   1.403       .  A
C1345      C1346   1.398       .  A
C1345      H1352   1.083       .  S
C1346      S1348   1.795       .  S
S1347      H1350   1.406       .  S
S1348      H1349   1.405       .  S
C1353      C1354   1.399       .  A
C1353      C1358   1.414       .  A
C1354      C1355   1.399       .  A
C1354      H1363   1.079       .  S
C1355      C1356   1.419       .  A
C1355      S1359   1.805       .  S
C1356      C1357   1.407       .  A
C1357      C1358   1.401       .  A
C1357      H1364   1.084       .  S
C1358      S1360   1.804       .  S
S1359      H1362   1.406       .  S
S1360      H1361   1.408       .  S
C1365      C1366   1.417       .  A
C1365      C1370   1.422       .  A
C1366      C1367   1.405       .  A
C1366      H1375   1.075       .  S
C1367      C1368   1.410       .  A
C1367      S1371   1.803       .  S
C1368      C1369   1.403       .  A
C1369      C1370   1.399       .  A
C1369      H1376   1.082       .  S
C1370      S1372   1.814       .  S
S1372      H1373   1.406       .  S
C1377      C1378   1.402       .  A
C1377      C1382   1.408       .  A
C1378      C1379   1.405       .  A
C1378      H1387   1.083       .  S
C1379      C1380   1.425       .  A
C1379      S1383   1.811       .  S
C1380      C1381   1.413       .  A
C1381      C1382   1.402       .  A
C1381      H1388   1.073       .  S
C1382      S1384   1.809       .  S
S1383      H1386   1.406       .  S
S1384      H1385   1.406       .  S
C1389      C1390   1.415       .  A
C1389      C1394   1.423       .  A
C1390      C1391   1.394       .  A
C1390      H1399   1.073       .  S
C1391      C1392   1.405       .  A
C1391      S1395   1.806       .  S
C1392      C1393   1.402       .  A
C1393      C1394   1.404       .  A
C1393      H1400   1.082       .  S
C1394      S1396   1.810       .  S
S1395      H1398   1.408       .  S
S1396      H1397   1.407       .  S
C1401      C1402   1.401       .  A
C1401      C1406   1.407       .  A
C1402      C1403   1.405       .  A
C1402      H1411   1.083       .  S
C1403      C1404   1.426       .  A
C1403      S1407   1.812       .  S
C1404      C1405   1.414       .  A
C1405      C1406   1.399       .  A
C1405      H1412   1.074       .  S
C1406      S1408   1.804       .  S
S1407      H1410   1.407       .  S
S1408      H1409   1.406       .  S
C1413      C1414   1.417       .  A
C1413      C1418   1.425       .  A
C1414      C1415   1.400       .  A
C1414      H1423   1.075       .  S
C1415      C1416   1.403       .  A
C1415      S1419   1.802       .  S
C1416      C1417   1.398       .  A
C1417      C1418   1.404       .  A
C1417      H1424   1.082       .  S
C1418      S1420   1.812       .  S
S1419      H1422   1.405       .  S
S1420      H1421   1.407       .  S
C1425      C1426   1.418       .  A
C1425      C1430   1.420       .  A
C1426      C1427   1.400       .  A
C1426      H1435   1.073       .  S
C1427      C1428   1.407       .  A
C1427      S1431   1.805       .  S
C1428      C1429   1.403       .  A
C1429      C1430   1.403       .  A
C1429      H1436   1.081       .  S
C1430      S1432   1.809       .  S
S1431      H1434   1.406       .  S
S1432      H1433   1.407       .  S
C1437      C1438   1.403       .  A
C1437      C1442   1.402       .  A
C1438      C1439   1.409       .  A
C1438      H1447   1.083       .  S
C1439      C1440   1.424       .  A
C1439      S1443   1.810       .  S
C1440      C1441   1.418       .  A
C1441      C1442   1.397       .  A
C1441      H1448   1.074       .  S
C1442      S1444   1.803       .  S
S1443      H1446   1.407       .  S
S1444      H1445   1.407       .  S
C1449      C1450   1.401       .  A
C1449      C1454   1.412       .  A
C1450      C1451   1.405       .  A
C1450      H1459   1.083       .  S
C1451      C1452   1.424       .  A
C1451      S1455   1.807       .  S
C1452      C1453   1.412       .  A
C1453      C1454   1.400       .  A
C1453      H1460   1.077       .  S
C1454      S1456   1.800       .  S
S1455      H1458   1.405       .  S
S1456      H1457   1.407       .  S
O1461      C1469   1.297       .  A
O1462      C1470   1.273       .  A
O1463      C1471   1.271       .  A
O1463     Co2213   1.976   1_545  S
O1464      C1472   1.259       .  A
O1464     Co2579   1.970       .  S
O1465      C1471   1.278       .  A
O1465     Co1482   2.026   1_655  S
O1466      C1472   1.265       .  A
O1466     Co1846   2.014       .  S
O1467      C1470   1.261       .  A
O1467     Co1849   1.961       .  S
O1468      C1469   1.265       .  A
O1468     Co1483   1.889       .  S
C1469      C1781   1.472       .  S
C1470      C1733   1.490       .  S
C1471      C1793   1.485       .  S
C1472      C1802   1.477       .  S
O1473      C1486   1.271       .  A
O1473     Co1481   1.977       .  S
O1474      C1487   1.257       .  A
O1474     Co1847   1.967   1_655  S
O1475      C1488   1.298       .  A
O1475     Co1848   2.120   1_554  S
O1476      C1489   1.274       .  A
O1476     Co1484   2.027   1_554  S
O1477      C1489   1.260       .  A
O1478      C1488   1.269       .  A
O1479      C1486   1.275       .  A
O1479     Co2214   2.016   1_554  S
O1480      C1487   1.262       .  A
O1480     Co2578   2.004   1_554  S
Co1481     O1831   2.021   1_554  S
Co1481     O1850   2.015       .  S
Co1482     O1839   1.971   1_455  S
Co1483     O2193   1.977       .  S
Co1483     O1840   2.114       .  S
Co1483     O2575   2.006       .  S
Co1484     O2559   1.970   1_545  S
Co1484     O1832   1.960       .  S
Co1484     O2209   2.021   1_546  S
Co1484     O2580   2.024       .  S
O1485     Co1846   2.009       .  S
O1485     Co2579   2.024       .  S
C1486      C1742   1.485       .  S
C1487      C1757   1.482       .  S
C1488      C1814   1.488       .  S
C1489      C1766   1.478       .  S
C1490      C1491   1.545       .  S
C1490      C1496   1.536       .  S
C1490      C1494   1.552       .  S
C1490      C1730   1.544       .  S
C1491      H1498   1.086       .  S
C1491      C1492   1.369       .  D
C1492      C1493   1.544       .  S
C1492      C1706   1.499       .  S
C1493      C1497   1.544       .  S
C1493      C1495   1.540       .  S
C1493      H1499   1.109       .  S
C1494      H1500   1.080       .  S
C1494      C1495   1.372       .  D
C1495      C1718   1.495       .  S
C1496      H1501   1.087       .  S
C1496      C1497   1.355       .  D
C1497      C1694   1.484       .  S
C1502      C1503   1.541       .  S
C1502      C1508   1.544       .  S
C1502      C1506   1.550       .  S
C1502      C1805   1.548       .  S
C1503      H1510   1.086       .  S
C1503      C1504   1.367       .  D
C1504      C1505   1.538       .  S
C1504      C1721   1.497       .  S
C1505      C1509   1.538       .  S
C1505      C1507   1.539       .  S
C1505      H1511   1.101       .  S
C1506      H1512   1.086       .  S
C1506      C1507   1.377       .  D
C1507      C1685   1.505       .  S
C1508      H1513   1.079       .  S
C1508      C1509   1.353       .  D
C1509      C1670   1.472       .  S
C1514      C1515   1.555       .  S
C1514      C1520   1.531       .  S
C1514      C1518   1.547       .  S
C1514      C1745   1.545       .  S
C1515      H1522   1.081       .  S
C1515      C1516   1.368       .  D
C1516      C1517   1.538       .  S
C1516      C1658   1.493       .  S
C1517      C1521   1.536       .  S
C1517      C1519   1.545       .  S
C1517      H1523   1.111       .  S
C1518      H1524   1.085       .  S
C1518      C1519   1.369       .  D
C1519      C1646   1.489       .  S
C1520      H1525   1.087       .  S
C1520      C1521   1.355       .  D
C1521      C1673   1.472       .  S
C1526      C1527   1.542       .  S
C1526      C1532   1.554       .  S
C1526      C1530   1.539       .  S
C1526      C1769   1.542       .  S
C1527      H1534   1.086       .  S
C1527      C1528   1.363       .  D
C1528      C1529   1.539       .  S
C1528      C1649   1.485       .  S
C1529      C1533   1.534       .  S
C1529      C1531   1.533       .  S
C1529      H1535   1.111       .  S
C1530      H1536   1.086       .  S
C1530      C1531   1.366       .  D
C1531      C1634   1.476       .  S
C1532      H1537   1.080       .  S
C1532      C1533   1.365       .  D
C1533      C1697   1.486       .  S
C1538      C1539   1.543       .  S
C1538      C1544   1.548       .  S
C1538      C1542   1.555       .  S
C1538      C1790   1.551       .  S
C1539      H1546   1.085       .  S
C1539      C1540   1.367       .  D
C1540      C1541   1.531       .  S
C1540      C1622   1.485       .  S
C1541      C1545   1.522       .  S
C1541      C1543   1.531       .  S
C1541      H1547   1.112       .  S
C1542      H1548   1.085       .  S
C1542      C1543   1.374       .  D
C1543      C1709   1.490       .  S
C1544      H1549   1.078       .  S
C1544      C1545   1.359       .  D
C1545      C1610   1.472       .  S
C1550      C1551   1.536       .  S
C1550      C1556   1.545       .  S
C1550      C1554   1.548       .  S
C1550      C1754   1.542       .  S
C1551      H1558   1.086       .  S
C1551      C1552   1.360       .  D
C1552      C1553   1.535       .  S
C1552      C1637   1.476       .  S
C1553      C1557   1.529       .  S
C1553      C1555   1.539       .  S
C1553      H1559   1.109       .  S
C1554      H1560   1.086       .  S
C1554      C1555   1.374       .  D
C1555      C1601   1.494       .  S
C1556      H1561   1.079       .  S
C1556      C1557   1.359       .  D
C1557      C1613   1.475       .  S
C1562      C1563   1.546       .  S
C1562      C1568   1.537       .  S
C1562      C1566   1.553       .  S
C1562      C1817   1.548       .  S
C1563      H1570   1.085       .  S
C1563      C1564   1.372       .  D
C1564      C1565   1.546       .  S
C1564      C1598   1.506       .  S
C1565      C1569   1.535       .  S
C1565      C1567   1.541       .  S
C1565      H1571   1.110       .  S
C1566      H1572   1.081       .  S
C1566      C1567   1.364       .  D
C1567      C1661   1.492       .  S
C1568      H1573   1.086       .  S
C1568      C1569   1.365       .  D
C1569      C1589   1.487       .  S
C1574      C1575   1.544       .  S
C1574      C1580   1.551       .  S
C1574      C1578   1.541       .  S
C1574      C1778   1.544       .  S
C1575      H1582   1.086       .  S
C1575      C1576   1.366       .  D
C1576      C1577   1.537       .  S
C1576      C1682   1.488       .  S
C1577      C1581   1.533       .  S
C1577      C1579   1.536       .  S
C1577      H1583   1.110       .  S
C1578      H1584   1.086       .  S
C1578      C1579   1.366       .  D
C1579      C1625   1.486       .  S
C1580      H1585   1.080       .  S
C1580      C1581   1.365       .  D
C1581      C1586   1.488       .  S
C1586      C1587   1.403       .  A
C1586      C1591   1.414       .  A
C1587      C1588   1.398       .  A
C1587      H1596   1.084       .  S
C1588      C1589   1.416       .  A
C1588      S1592   1.803       .  S
C1589      C1590   1.404       .  A
C1590      C1591   1.401       .  A
C1590      H1597   1.084       .  S
C1591      S1593   1.800       .  S
S1592      H1595   1.400       .  S
S1593      H1594   1.405       .  S
C1598      C1599   1.402       .  A
C1598      C1603   1.420       .  A
C1599      C1600   1.397       .  A
C1599      H1608   1.069       .  S
C1600      C1601   1.411       .  A
C1600      S1604   1.806       .  S
C1601      C1602   1.405       .  A
C1602      C1603   1.410       .  A
C1602      H1609   1.082       .  S
C1603      S1605   1.804       .  S
S1604      H1607   1.407       .  S
S1605      H1606   1.406       .  S
C1610      C1611   1.402       .  A
C1610      C1615   1.412       .  A
C1611      C1612   1.398       .  A
C1611      H1620   1.084       .  S
C1612      C1613   1.411       .  A
C1612      S1616   1.800       .  S
C1613      C1614   1.402       .  A
C1614      C1615   1.391       .  A
C1614      H1621   1.084       .  S
C1615      S1617   1.805       .  S
S1616      H1619   1.406       .  S
S1617      H1618   1.405       .  S
C1622      C1623   1.403       .  A
C1622      C1627   1.413       .  A
C1623      C1624   1.401       .  A
C1623      H1632   1.083       .  S
C1624      C1625   1.412       .  A
C1624      S1628   1.806       .  S
C1625      C1626   1.404       .  A
C1626      C1627   1.404       .  A
C1626      H1633   1.083       .  S
C1627      S1629   1.808       .  S
S1628      H1631   1.407       .  S
S1629      H1630   1.406       .  S
C1634      C1635   1.404       .  A
C1634      C1639   1.411       .  A
C1635      C1636   1.396       .  A
C1635      H1644   1.083       .  S
C1636      C1637   1.409       .  A
C1636      S1640   1.799       .  S
C1637      C1638   1.404       .  A
C1638      C1639   1.395       .  A
C1638      H1645   1.084       .  S
C1639      S1641   1.803       .  S
S1640      H1643   1.405       .  S
S1641      H1642   1.404       .  S
C1646      C1647   1.400       .  A
C1646      C1651   1.417       .  A
C1647      C1648   1.398       .  A
C1647      H1656   1.074       .  S
C1648      C1649   1.407       .  A
C1648      S1652   1.801       .  S
C1649      C1650   1.405       .  A
C1650      C1651   1.408       .  A
C1650      H1657   1.083       .  S
C1651      S1653   1.807       .  S
S1652      H1655   1.405       .  S
S1653      H1654   1.402       .  S
C1658      C1659   1.407       .  A
C1658      C1663   1.410       .  A
C1659      C1660   1.409       .  A
C1659      H1668   1.083       .  S
C1660      C1661   1.412       .  A
C1660      S1664   1.804       .  S
C1661      C1662   1.398       .  A
C1662      C1663   1.400       .  A
C1662      H1669   1.072       .  S
C1663      S1665   1.799       .  S
S1664      H1667   1.407       .  S
S1665      H1666   1.406       .  S
C1670      C1671   1.399       .  A
C1670      C1675   1.412       .  A
C1671      C1672   1.394       .  A
C1671      H1680   1.085       .  S
C1672      C1673   1.409       .  A
C1672      S1676   1.798       .  S
C1673      C1674   1.403       .  A
C1674      C1675   1.399       .  A
C1674      H1681   1.084       .  S
C1675      S1677   1.808       .  S
S1676      H1679   1.404       .  S
S1677      H1678   1.402       .  S
C1682      C1683   1.397       .  A
C1682      C1687   1.413       .  A
C1683      C1684   1.398       .  A
C1683      H1692   1.083       .  S
C1684      C1685   1.423       .  A
C1684      S1688   1.803       .  S
C1685      C1686   1.411       .  A
C1686      C1687   1.406       .  A
C1686      H1693   1.083       .  S
C1687      S1689   1.802       .  S
S1688      H1691   1.407       .  S
S1689      H1690   1.406       .  S
C1694      C1695   1.402       .  A
C1694      C1699   1.412       .  A
C1695      C1696   1.402       .  A
C1695      H1704   1.082       .  S
C1696      C1697   1.417       .  A
C1696      S1700   1.805       .  S
C1697      C1698   1.399       .  A
C1698      C1699   1.397       .  A
C1698      H1705   1.076       .  S
C1699      S1701   1.803       .  S
S1700      H1703   1.401       .  S
S1701      H1702   1.403       .  S
C1706      C1707   1.410       .  A
C1706      C1711   1.412       .  A
C1707      C1708   1.409       .  A
C1707      H1716   1.083       .  S
C1708      C1709   1.414       .  A
C1708      S1712   1.802       .  S
C1709      C1710   1.402       .  A
C1710      C1711   1.396       .  A
C1710      H1717   1.084       .  S
C1711      S1713   1.793       .  S
S1712      H1715   1.406       .  S
S1713      H1714   1.404       .  S
C1718      C1719   1.400       .  A
C1718      C1723   1.414       .  A
C1719      C1720   1.399       .  A
C1719      H1728   1.078       .  S
C1720      C1721   1.416       .  A
C1720      S1724   1.804       .  S
C1721      C1722   1.409       .  A
C1722      C1723   1.403       .  A
C1722      H1729   1.084       .  S
C1723      S1725   1.803       .  S
S1724      H1727   1.406       .  S
S1725      H1726   1.407       .  S
C1730      C1731   1.415       .  A
C1730      C1735   1.424       .  A
C1731      C1732   1.405       .  A
C1731      H1740   1.075       .  S
C1732      C1733   1.411       .  A
C1732      S1736   1.803       .  S
C1733      C1734   1.404       .  A
C1734      C1735   1.402       .  A
C1734      H1741   1.082       .  S
C1735      S1737   1.814       .  S
S1736      H2104   1.408       .  S
S1737      H1738   1.406       .  S
H1739      S2101   1.408       .  S
C1742      C1743   1.401       .  A
C1742      C1747   1.409       .  A
C1743      C1744   1.406       .  A
C1743      H1752   1.083       .  S
C1744      C1745   1.426       .  A
C1744      S1748   1.812       .  S
C1745      C1746   1.414       .  A
C1746      C1747   1.403       .  A
C1746      H1753   1.073       .  S
C1747      S1749   1.811       .  S
S1748      H1751   1.406       .  S
S1749      H1750   1.406       .  S
C1754      C1755   1.414       .  A
C1754      C1759   1.423       .  A
C1755      C1756   1.394       .  A
C1755      H1764   1.072       .  S
C1756      C1757   1.409       .  A
C1756      S1760   1.806       .  S
C1757      C1758   1.404       .  A
C1758      C1759   1.405       .  A
C1758      H1765   1.082       .  S
C1759      S1761   1.811       .  S
S1760      H1763   1.408       .  S
S1761      H1762   1.407       .  S
C1766      C1767   1.400       .  A
C1766      C1771   1.409       .  A
C1767      C1768   1.403       .  A
C1767      H1776   1.083       .  S
C1768      C1769   1.425       .  A
C1768      S1772   1.810       .  S
C1769      C1770   1.414       .  A
C1770      C1771   1.399       .  A
C1770      H1777   1.074       .  S
C1771      S1773   1.805       .  S
S1772      H1775   1.407       .  S
S1773      H1774   1.405       .  S
C1778      C1779   1.417       .  A
C1778      C1783   1.425       .  A
C1779      C1780   1.400       .  A
C1779      H1788   1.074       .  S
C1780      C1781   1.403       .  A
C1780      S1784   1.800       .  S
C1781      C1782   1.398       .  A
C1782      C1783   1.404       .  A
C1782      H1789   1.082       .  S
C1783      S1785   1.811       .  S
S1784      H1787   1.404       .  S
S1785      H1786   1.407       .  S
C1790      C1791   1.420       .  A
C1790      C1795   1.421       .  A
C1791      C1792   1.401       .  A
C1791      H1800   1.072       .  S
C1792      C1793   1.405       .  A
C1792      S1796   1.804       .  S
C1793      C1794   1.404       .  A
C1794      C1795   1.406       .  A
C1794      H1801   1.081       .  S
C1795      S1797   1.808       .  S
S1796      H1799   1.406   1_655  S
S1797      H1798   1.407       .  S
C1802      C1803   1.402       .  A
C1802      C1807   1.404       .  A
C1803      C1804   1.408       .  A
C1803      H1812   1.083       .  S
C1804      C1805   1.425       .  A
C1804      S1808   1.810       .  S
C1805      C1806   1.417       .  A
C1806      C1807   1.394       .  A
C1806      H1813   1.072       .  S
C1807      S1809   1.804       .  S
S1808      H1811   1.407       .  S
S1809      H1810   1.406       .  S
C1814      C1815   1.401       .  A
C1814      C1819   1.412       .  A
C1815      C1816   1.406       .  A
C1815      H1824   1.083       .  S
C1816      C1817   1.425       .  A
C1816      S1820   1.807       .  S
C1817      C1818   1.413       .  A
C1818      C1819   1.401       .  A
C1818      H1825   1.075       .  S
C1819      S1821   1.800       .  S
S1820      H1823   1.406       .  S
S1821      H1822   1.407       .  S
O1826      C1834   1.296       .  A
O1827      C1835   1.274       .  A
O1828      C1836   1.270       .  A
O1828     Co2578   1.973       .  S
O1829      C1837   1.259       .  A
O1829     Co2214   1.966       .  S
O1830      C1836   1.277       .  A
O1830     Co1847   2.025   1_656  S
O1831      C1837   1.267       .  A
O1832      C1835   1.261       .  A
O1833      C1834   1.264       .  A
O1833     Co1848   1.889       .  S
C1834      C2146   1.470       .  S
C1835      C2098   1.491       .  S
C1836      C2158   1.481       .  S
C1837      C2167   1.481       .  S
O1838      C1851   1.272       .  A
O1838     Co1846   1.977       .  S
O1839      C1852   1.258       .  A
O1840      C1853   1.297       .  A
O1841      C1854   1.276       .  A
O1841     Co1849   2.035       .  S
O1842      C1854   1.261       .  A
O1843      C1853   1.267       .  A
O1844      C1851   1.276       .  A
O1844     Co2579   2.020       .  S
O1845      C1852   1.263       .  A
O1845     Co2213   2.003   1_545  S
Co1848     O2558   1.977       .  S
Co1848     O2210   1.994   1_556  S
Co1849     O2194   1.971   1_545  S
Co1849     O2574   2.012   1_545  S
Co1849     O2215   2.026       .  S
O1850     Co2214   2.022   1_554  S
C1851      C2107   1.489       .  S
C1852      C2122   1.479       .  S
C1853      C2179   1.485       .  S
C1854      C2131   1.481       .  S
C1855      C1856   1.544       .  S
C1855      C1861   1.537       .  S
C1855      C1859   1.551       .  S
C1855      C2095   1.544       .  S
C1856      H1863   1.086       .  S
C1856      C1857   1.367       .  D
C1857      C1858   1.541       .  S
C1857      C2071   1.496       .  S
C1858      C1862   1.546       .  S
C1858      C1860   1.543       .  S
C1858      H1864   1.108       .  S
C1859      H1865   1.078       .  S
C1859      C1860   1.371       .  D
C1860      C2083   1.497       .  S
C1861      H1866   1.087       .  S
C1861      C1862   1.357       .  D
C1862      C2059   1.489       .  S
C1867      C1868   1.543       .  S
C1867      C1873   1.546       .  S
C1867      C1871   1.548       .  S
C1867      C2170   1.551       .  S
C1868      H1875   1.086       .  S
C1868      C1869   1.371       .  D
C1869      C1870   1.539       .  S
C1869      C2086   1.502       .  S
C1870      C1874   1.539       .  S
C1870      C1872   1.537       .  S
C1870      H1876   1.101       .  S
C1871      H1877   1.086       .  S
C1871      C1872   1.374       .  D
C1872      C2050   1.501       .  S
C1873      H1878   1.079       .  S
C1873      C1874   1.355       .  D
C1874      C2035   1.475       .  S
C1879      C1880   1.555       .  S
C1879      C1885   1.533       .  S
C1879      C1883   1.547       .  S
C1879      C2110   1.549       .  S
C1880      H1887   1.080       .  S
C1880      C1881   1.369       .  D
C1881      C1882   1.541       .  S
C1881      C2023   1.497       .  S
C1882      C1886   1.540       .  S
C1882      C1884   1.549       .  S
C1882      H1888   1.111       .  S
C1883      H1889   1.086       .  S
C1883      C1884   1.369       .  D
C1884      C2011   1.495       .  S
C1885      H1890   1.087       .  S
C1885      C1886   1.357       .  D
C1886      C2038   1.479       .  S
C1891      C1892   1.543       .  S
C1891      C1897   1.555       .  S
C1891      C1895   1.537       .  S
C1891      C2134   1.546       .  S
C1892      H1899   1.086       .  S
C1892      C1893   1.364       .  D
C1893      C1894   1.540       .  S
C1893      C2014   1.488       .  S
C1894      C1898   1.535       .  S
C1894      C1896   1.537       .  S
C1894      H1900   1.111       .  S
C1895      H1901   1.086       .  S
C1895      C1896   1.366       .  D
C1896      C1999   1.483       .  S
C1897      H1902   1.080       .  S
C1897      C1898   1.367       .  D
C1898      C2062   1.489       .  S
C1903      C1904   1.541       .  S
C1903      C1909   1.547       .  S
C1903      C1907   1.555       .  S
C1903      C2155   1.548       .  S
C1904      H1911   1.086       .  S
C1904      C1905   1.365       .  D
C1905      C1906   1.533       .  S
C1905      C1987   1.483       .  S
C1906      C1910   1.523       .  S
C1906      C1908   1.529       .  S
C1906      H1912   1.112       .  S
C1907      H1913   1.086       .  S
C1907      C1908   1.373       .  D
C1908      C2074   1.488       .  S
C1909      H1914   1.078       .  S
C1909      C1910   1.359       .  D
C1910      C1975   1.471       .  S
C1915      C1916   1.536       .  S
C1915      C1921   1.544       .  S
C1915      C1919   1.550       .  S
C1915      C2119   1.541       .  S
C1916      H1923   1.087       .  S
C1916      C1917   1.361       .  D
C1917      C1918   1.536       .  S
C1917      C2002   1.482       .  S
C1918      C1922   1.529       .  S
C1918      C1920   1.537       .  S
C1918      H1924   1.109       .  S
C1919      H1925   1.086       .  S
C1919      C1920   1.373       .  D
C1920      C1966   1.493       .  S
C1921      H1926   1.079       .  S
C1921      C1922   1.360       .  D
C1922      C1978   1.474       .  S
C1927      C1928   1.543       .  S
C1927      C1933   1.535       .  S
C1927      C1931   1.553       .  S
C1927      C2182   1.545       .  S
C1928      H1935   1.085       .  S
C1928      C1929   1.371       .  D
C1929      C1930   1.550       .  S
C1929      C1963   1.505       .  S
C1930      C1934   1.540       .  S
C1930      C1932   1.544       .  S
C1930      H1936   1.110       .  S
C1931      H1937   1.081       .  S
C1931      C1932   1.364       .  D
C1932      C2026   1.495       .  S
C1933      H1938   1.086       .  S
C1933      C1934   1.364       .  D
C1934      C1954   1.488       .  S
C1939      C1940   1.543       .  S
C1939      C1945   1.552       .  S
C1939      C1943   1.544       .  S
C1939      C2143   1.545       .  S
C1940      H1947   1.086       .  S
C1940      C1941   1.364       .  D
C1941      C1942   1.537       .  S
C1941      C2047   1.486       .  S
C1942      C1946   1.533       .  S
C1942      C1944   1.537       .  S
C1942      H1948   1.110       .  S
C1943      H1949   1.086       .  S
C1943      C1944   1.367       .  D
C1944      C1990   1.486       .  S
C1945      H1950   1.080       .  S
C1945      C1946   1.365       .  D
C1946      C1951   1.489       .  S
C1951      C1952   1.403       .  A
C1951      C1956   1.414       .  A
C1952      C1953   1.399       .  A
C1952      H1961   1.084       .  S
C1953      C1954   1.418       .  A
C1953      S1957   1.803       .  S
C1954      C1955   1.403       .  A
C1955      C1956   1.401       .  A
C1955      H1962   1.084       .  S
C1956      S1958   1.798       .  S
S1957      H1960   1.400       .  S
S1958      H1959   1.406       .  S
C1963      C1964   1.401       .  A
C1963      C1968   1.420       .  A
C1964      C1965   1.398       .  A
C1964      H1973   1.068       .  S
C1965      C1966   1.410       .  A
C1965      S1969   1.806       .  S
C1966      C1967   1.405       .  A
C1967      C1968   1.410       .  A
C1967      H1974   1.082       .  S
C1968      S1970   1.803       .  S
S1969      H1972   1.405       .  S
S1970      H1971   1.407       .  S
C1975      C1976   1.401       .  A
C1975      C1980   1.413       .  A
C1976      C1977   1.397       .  A
C1976      H1985   1.084       .  S
C1977      C1978   1.411       .  A
C1977      S1981   1.799       .  S
C1978      C1979   1.401       .  A
C1979      C1980   1.391       .  A
C1979      H1986   1.084       .  S
C1980      S1982   1.806       .  S
S1981      H1984   1.406       .  S
S1982      H1983   1.404       .  S
C1987      C1988   1.401       .  A
C1987      C1992   1.412       .  A
C1988      C1989   1.399       .  A
C1988      H1997   1.083       .  S
C1989      C1990   1.412       .  A
C1989      S1993   1.806       .  S
C1990      C1991   1.405       .  A
C1991      C1992   1.405       .  A
C1991      H1998   1.083       .  S
C1992      S1994   1.807       .  S
S1993      H1996   1.407       .  S
S1994      H1995   1.406       .  S
C1999      C2000   1.405       .  A
C1999      C2004   1.413       .  A
C2000      C2001   1.397       .  A
C2000      H2009   1.083       .  S
C2001      C2002   1.411       .  A
C2001      S2005   1.800       .  S
C2002      C2003   1.405       .  A
C2003      C2004   1.396       .  A
C2003      H2010   1.084       .  S
C2004      S2006   1.803       .  S
S2005      H2008   1.405       .  S
S2006      H2007   1.406       .  S
C2011      C2012   1.400       .  A
C2011      C2016   1.418       .  A
C2012      C2013   1.400       .  A
C2012      H2021   1.073       .  S
C2013      C2014   1.410       .  A
C2013      S2017   1.803       .  S
C2014      C2015   1.406       .  A
C2015      C2016   1.409       .  A
C2015      H2022   1.084       .  S
C2016      S2018   1.807       .  S
S2017      H2020   1.403       .  S
S2018      H2019   1.401       .  S
C2023      C2024   1.408       .  A
C2023      C2028   1.410       .  A
C2024      C2025   1.409       .  A
C2024      H2033   1.083       .  S
C2025      C2026   1.413       .  A
C2025      S2029   1.804       .  S
C2026      C2027   1.398       .  A
C2027      C2028   1.402       .  A
C2027      H2034   1.071       .  S
C2028      S2030   1.798       .  S
S2029      H2032   1.407       .  S
S2030      H2031   1.407       .  S
C2035      C2036   1.398       .  A
C2035      C2040   1.413       .  A
C2036      C2037   1.394       .  A
C2036      H2045   1.085       .  S
C2037      C2038   1.409       .  A
C2037      S2041   1.793       .  S
C2038      C2039   1.405       .  A
C2039      C2040   1.401       .  A
C2039      H2046   1.084       .  S
C2040      S2042   1.808       .  S
S2041      H2044   1.407       .  S
S2042      H2043   1.402       .  S
C2047      C2048   1.397       .  A
C2047      C2052   1.414       .  A
C2048      C2049   1.398       .  A
C2048      H2057   1.083       .  S
C2049      C2050   1.419       .  A
C2049      S2053   1.803       .  S
C2050      C2051   1.409       .  A
C2051      C2052   1.407       .  A
C2051      H2058   1.084       .  S
C2052      S2054   1.804       .  S
S2053      H2056   1.407       .  S
S2054      H2055   1.404       .  S
C2059      C2060   1.404       .  A
C2059      C2064   1.413       .  A
C2060      C2061   1.403       .  A
C2060      H2069   1.082       .  S
C2061      C2062   1.417       .  A
C2061      S2065   1.804       .  S
C2062      C2063   1.399       .  A
C2063      C2064   1.399       .  A
C2063      H2070   1.078       .  S
C2064      S2066   1.801       .  S
S2065      H2068   1.403       .  S
S2066      H2067   1.404       .  S
C2071      C2072   1.410       .  A
C2071      C2076   1.412       .  A
C2072      C2073   1.408       .  A
C2072      H2081   1.084       .  S
C2073      C2074   1.413       .  A
C2073      S2077   1.803       .  S
C2074      C2075   1.403       .  A
C2075      C2076   1.396       .  A
C2075      H2082   1.083       .  S
C2076      S2078   1.796       .  S
S2077      H2080   1.406       .  S
S2078      H2079   1.404       .  S
C2083      C2084   1.399       .  A
C2083      C2088   1.416       .  A
C2084      C2085   1.399       .  A
C2084      H2093   1.077       .  S
C2085      C2086   1.420       .  A
C2085      S2089   1.804       .  S
C2086      C2087   1.409       .  A
C2087      C2088   1.403       .  A
C2087      H2094   1.084       .  S
C2088      S2090   1.804       .  S
S2089      H2092   1.406       .  S
S2090      H2091   1.407       .  S
C2095      C2096   1.415       .  A
C2095      C2100   1.423       .  A
C2096      C2097   1.404       .  A
C2096      H2105   1.075       .  S
C2097      C2098   1.411       .  A
C2097      S2101   1.803       .  S
C2098      C2099   1.405       .  A
C2099      C2100   1.401       .  A
C2099      H2106   1.082       .  S
C2100      S2102   1.814       .  S
S2102      H2103   1.406       .  S
C2107      C2108   1.402       .  A
C2107      C2112   1.411       .  A
C2108      C2109   1.407       .  A
C2108      H2117   1.082       .  S
C2109      C2110   1.426       .  A
C2109      S2113   1.812       .  S
C2110      C2111   1.414       .  A
C2111      C2112   1.405       .  A
C2111      H2118   1.072       .  S
C2112      S2114   1.811       .  S
S2113      H2116   1.405       .  S
S2114      H2115   1.406       .  S
C2119      C2120   1.415       .  A
C2119      C2124   1.423       .  A
C2120      C2121   1.397       .  A
C2120      H2129   1.073       .  S
C2121      C2122   1.407       .  A
C2121      S2125   1.806       .  S
C2122      C2123   1.402       .  A
C2123      C2124   1.403       .  A
C2123      H2130   1.081       .  S
C2124      S2126   1.810       .  S
S2125      H2128   1.408       .  S
S2126      H2127   1.407       .  S
C2131      C2132   1.401       .  A
C2131      C2136   1.408       .  A
C2132      C2133   1.405       .  A
C2132      H2141   1.083       .  S
C2133      C2134   1.427       .  A
C2133      S2137   1.811       .  S
C2134      C2135   1.414       .  A
C2135      C2136   1.400       .  A
C2135      H2142   1.074       .  S
C2136      S2138   1.805       .  S
S2137      H2140   1.407       .  S
S2138      H2139   1.407   1_545  S
C2143      C2144   1.417       .  A
C2143      C2148   1.425       .  A
C2144      C2145   1.400       .  A
C2144      H2153   1.074       .  S
C2145      C2146   1.403       .  A
C2145      S2149   1.803       .  S
C2146      C2147   1.398       .  A
C2147      C2148   1.404       .  A
C2147      H2154   1.082       .  S
C2148      S2150   1.811       .  S
S2149      H2152   1.404       .  S
S2150      H2151   1.407       .  S
C2155      C2156   1.419       .  A
C2155      C2160   1.421       .  A
C2156      C2157   1.399       .  A
C2156      H2165   1.072       .  S
C2157      C2158   1.404       .  A
C2157      S2161   1.804       .  S
C2158      C2159   1.403       .  A
C2159      C2160   1.405       .  A
C2159      H2166   1.082       .  S
C2160      S2162   1.808       .  S
S2161      H2164   1.405       .  S
S2162      H2163   1.407       .  S
C2167      C2168   1.403       .  A
C2167      C2172   1.406       .  A
C2168      C2169   1.410       .  A
C2168      H2177   1.083       .  S
C2169      C2170   1.425       .  A
C2169      S2173   1.811       .  S
C2170      C2171   1.416       .  A
C2171      C2172   1.396       .  A
C2171      H2178   1.072       .  S
C2172      S2174   1.805       .  S
S2173      H2176   1.407       .  S
S2174      H2175   1.406       .  S
C2179      C2180   1.401       .  A
C2179      C2184   1.411       .  A
C2180      C2181   1.406       .  A
C2180      H2189   1.083       .  S
C2181      C2182   1.425       .  A
C2181      S2185   1.807       .  S
C2182      C2183   1.412       .  A
C2183      C2184   1.398       .  A
C2183      H2190   1.075       .  S
C2184      S2186   1.799       .  S
S2185      H2188   1.406       .  S
S2186      H2187   1.407       .  S
O2191      C2199   1.298       .  A
O2192      C2200   1.274       .  A
O2193      C2201   1.272       .  A
O2194      C2202   1.260       .  A
O2195      C2201   1.278       .  A
O2195     Co2212   2.026   1_655  S
O2196      C2202   1.265       .  A
O2196     Co2576   2.009       .  S
O2197      C2200   1.260       .  A
O2197     Co2579   1.958       .  S
O2198      C2199   1.264       .  A
O2198     Co2213   1.891       .  S
C2199      C2511   1.472       .  S
C2200      C2463   1.492       .  S
C2201      C2523   1.487       .  S
C2202      C2532   1.477       .  S
O2203      C2216   1.270       .  A
O2203     Co2211   1.972       .  S
O2204      C2217   1.260       .  A
O2204     Co2577   1.975   1_655  S
O2205      C2218   1.297       .  A
O2205     Co2578   2.113   1_564  S
O2206      C2219   1.275       .  A
O2206     Co2214   2.025   1_554  S
O2207      C2219   1.263       .  A
O2208      C2218   1.268       .  A
O2209      C2216   1.277       .  A
O2210      C2217   1.261       .  A
Co2211     O2561   2.015   1_554  S
Co2211     O2580   2.007   1_564  S
Co2212     O2569   1.974   1_455  S
Co2213     O2570   2.112       .  S
Co2214     O2562   1.961       .  S
O2215     Co2576   2.014   1_545  S
C2216      C2472   1.484       .  S
C2217      C2487   1.473       .  S
C2218      C2544   1.490       .  S
C2219      C2496   1.476       .  S
C2220      C2221   1.545       .  S
C2220      C2226   1.536       .  S
C2220      C2224   1.551       .  S
C2220      C2460   1.543       .  S
C2221      H2228   1.086       .  S
C2221      C2222   1.366       .  D
C2222      C2223   1.540       .  S
C2222      C2436   1.497       .  S
C2223      C2227   1.544       .  S
C2223      C2225   1.544       .  S
C2223      H2229   1.107       .  S
C2224      H2230   1.078       .  S
C2224      C2225   1.373       .  D
C2225      C2448   1.499       .  S
C2226      H2231   1.087       .  S
C2226      C2227   1.357       .  D
C2227      C2424   1.486       .  S
C2232      C2233   1.543       .  S
C2232      C2238   1.544       .  S
C2232      C2236   1.546       .  S
C2232      C2535   1.545       .  S
C2233      H2240   1.086       .  S
C2233      C2234   1.372       .  D
C2234      C2235   1.539       .  S
C2234      C2451   1.504       .  S
C2235      C2239   1.537       .  S
C2235      C2237   1.534       .  S
C2235      H2241   1.100       .  S
C2236      H2242   1.086       .  S
C2236      C2237   1.370       .  D
C2237      C2415   1.495       .  S
C2238      H2243   1.079       .  S
C2238      C2239   1.354       .  D
C2239      C2400   1.471       .  S
C2244      C2245   1.555       .  S
C2244      C2250   1.532       .  S
C2244      C2248   1.544       .  S
C2244      C2475   1.545       .  S
C2245      H2252   1.080       .  S
C2245      C2246   1.370       .  D
C2246      C2247   1.543       .  S
C2246      C2388   1.502       .  S
C2247      C2251   1.538       .  S
C2247      C2249   1.549       .  S
C2247      H2253   1.109       .  S
C2248      H2254   1.086       .  S
C2248      C2249   1.367       .  D
C2249      C2376   1.490       .  S
C2250      H2255   1.087       .  S
C2250      C2251   1.358       .  D
C2251      C2403   1.479       .  S
C2256      C2257   1.541       .  S
C2256      C2262   1.552       .  S
C2256      C2260   1.538       .  S
C2256      C2499   1.542       .  S
C2257      H2264   1.086       .  S
C2257      C2258   1.364       .  D
C2258      C2259   1.539       .  S
C2258      C2379   1.483       .  S
C2259      C2263   1.534       .  S
C2259      C2261   1.534       .  S
C2259      H2265   1.111       .  S
C2260      H2266   1.086       .  S
C2260      C2261   1.366       .  D
C2261      C2364   1.479       .  S
C2262      H2267   1.080       .  S
C2262      C2263   1.365       .  D
C2263      C2427   1.485       .  S
C2268      C2269   1.543       .  S
C2268      C2274   1.548       .  S
C2268      C2272   1.552       .  S
C2268      C2520   1.550       .  S
C2269      H2276   1.085       .  S
C2269      C2270   1.367       .  D
C2270      C2271   1.535       .  S
C2270      C2352   1.488       .  S
C2271      C2275   1.524       .  S
C2271      C2273   1.532       .  S
C2271      H2277   1.112       .  S
C2272      H2278   1.086       .  S
C2272      C2273   1.372       .  D
C2273      C2439   1.490       .  S
C2274      H2279   1.079       .  S
C2274      C2275   1.360       .  D
C2275      C2340   1.472       .  S
C2280      C2281   1.534       .  S
C2280      C2286   1.542       .  S
C2280      C2284   1.550       .  S
C2280      C2484   1.537       .  S
C2281      H2288   1.087       .  S
C2281      C2282   1.360       .  D
C2282      C2283   1.536       .  S
C2282      C2367   1.480       .  S
C2283      C2287   1.530       .  S
C2283      C2285   1.540       .  S
C2283      H2289   1.108       .  S
C2284      H2290   1.086       .  S
C2284      C2285   1.374       .  D
C2285      C2331   1.495       .  S
C2286      H2291   1.080       .  S
C2286      C2287   1.358       .  D
C2287      C2343   1.475       .  S
C2292      C2293   1.545       .  S
C2292      C2298   1.537       .  S
C2292      C2296   1.553       .  S
C2292      C2547   1.549       .  S
C2293      H2300   1.084       .  S
C2293      C2294   1.372       .  D
C2294      C2295   1.550       .  S
C2294      C2328   1.509       .  S
C2295      C2299   1.537       .  S
C2295      C2297   1.544       .  S
C2295      H2301   1.109       .  S
C2296      H2302   1.082       .  S
C2296      C2297   1.365       .  D
C2297      C2391   1.497       .  S
C2298      H2303   1.086       .  S
C2298      C2299   1.365       .  D
C2299      C2319   1.491       .  S
C2304      C2305   1.541       .  S
C2304      C2310   1.553       .  S
C2304      C2308   1.543       .  S
C2304      C2508   1.546       .  S
C2305      H2312   1.086       .  S
C2305      C2306   1.364       .  D
C2306      C2307   1.536       .  S
C2306      C2412   1.482       .  S
C2307      C2311   1.536       .  S
C2307      C2309   1.538       .  S
C2307      H2313   1.110       .  S
C2308      H2314   1.086       .  S
C2308      C2309   1.367       .  D
C2309      C2355   1.490       .  S
C2310      H2315   1.080       .  S
C2310      C2311   1.368       .  D
C2311      C2316   1.496       .  S
C2316      C2317   1.406       .  A
C2316      C2321   1.416       .  A
C2317      C2318   1.401       .  A
C2317      H2326   1.084       .  S
C2318      C2319   1.416       .  A
C2318      S2322   1.803       .  S
C2319      C2320   1.404       .  A
C2320      C2321   1.402       .  A
C2320      H2327   1.084       .  S
C2321      S2323   1.798       .  S
S2322      H2325   1.404       .  S
S2323      H2324   1.405       .  S
C2328      C2329   1.402       .  A
C2328      C2333   1.422       .  A
C2329      C2330   1.396       .  A
C2329      H2338   1.070       .  S
C2330      C2331   1.410       .  A
C2330      S2334   1.806       .  S
C2331      C2332   1.405       .  A
C2332      C2333   1.410       .  A
C2332      H2339   1.082       .  S
C2333      S2335   1.804       .  S
S2334      H2337   1.407       .  S
S2335      H2336   1.406       .  S
C2340      C2341   1.402       .  A
C2340      C2345   1.413       .  A
C2341      C2342   1.397       .  A
C2341      H2350   1.084       .  S
C2342      C2343   1.411       .  A
C2342      S2346   1.799       .  S
C2343      C2344   1.402       .  A
C2344      C2345   1.392       .  A
C2344      H2351   1.084       .  S
C2345      S2347   1.806       .  S
S2346      H2349   1.406       .  S
S2347      H2348   1.404       .  S
C2352      C2353   1.403       .  A
C2352      C2357   1.414       .  A
C2353      C2354   1.403       .  A
C2353      H2362   1.083       .  S
C2354      C2355   1.413       .  A
C2354      S2358   1.806       .  S
C2355      C2356   1.405       .  A
C2356      C2357   1.405       .  A
C2356      H2363   1.083       .  S
C2357      S2359   1.806       .  S
S2358      H2361   1.407       .  S
S2359      H2360   1.407       .  S
C2364      C2365   1.404       .  A
C2364      C2369   1.412       .  A
C2365      C2366   1.397       .  A
C2365      H2374   1.083       .  S
C2366      C2367   1.410       .  A
C2366      S2370   1.800       .  S
C2367      C2368   1.405       .  A
C2368      C2369   1.396       .  A
C2368      H2375   1.084       .  S
C2369      S2371   1.803       .  S
S2370      H2373   1.406       .  S
S2371      H2372   1.405       .  S
C2376      C2377   1.400       .  A
C2376      C2381   1.415       .  A
C2377      C2378   1.400       .  A
C2377      H2386   1.076       .  S
C2378      C2379   1.409       .  A
C2378      S2382   1.804       .  S
C2379      C2380   1.405       .  A
C2380      C2381   1.406       .  A
C2380      H2387   1.083       .  S
C2381      S2383   1.808       .  S
S2382      H2385   1.403       .  S
S2383      H2384   1.401       .  S
C2388      C2389   1.411       .  A
C2388      C2393   1.412       .  A
C2389      C2390   1.410       .  A
C2389      H2398   1.083       .  S
C2390      C2391   1.412       .  A
C2390      S2394   1.805       .  S
C2391      C2392   1.397       .  A
C2392      C2393   1.401       .  A
C2392      H2399   1.073       .  S
C2393      S2395   1.799       .  S
S2394      H2397   1.407       .  S
S2395      H2396   1.406       .  S
C2400      C2401   1.397       .  A
C2400      C2405   1.414       .  A
C2401      C2402   1.391       .  A
C2401      H2410   1.084       .  S
C2402      C2403   1.407       .  A
C2402      S2406   1.788       .  S
C2403      C2404   1.404       .  A
C2404      C2405   1.400       .  A
C2404      H2411   1.084       .  S
C2405      S2407   1.808       .  S
S2406      H2409   1.408       .  S
S2407      H2408   1.402       .  S
C2412      C2413   1.397       .  A
C2412      C2417   1.414       .  A
C2413      C2414   1.396       .  A
C2413      H2422   1.083       .  S
C2414      C2415   1.417       .  A
C2414      S2418   1.804       .  S
C2415      C2416   1.408       .  A
C2416      C2417   1.405       .  A
C2416      H2423   1.084       .  S
C2417      S2419   1.804       .  S
S2418      H2421   1.407       .  S
S2419      H2420   1.405       .  S
C2424      C2425   1.401       .  A
C2424      C2429   1.416       .  A
C2425      C2426   1.399       .  A
C2425      H2434   1.082       .  S
C2426      C2427   1.417       .  A
C2426      S2430   1.804       .  S
C2427      C2428   1.400       .  A
C2428      C2429   1.402       .  A
C2428      H2435   1.082       .  S
C2429      S2431   1.801       .  S
S2430      H2433   1.402       .  S
S2431      H2432   1.403       .  S
C2436      C2437   1.409       .  A
C2436      C2441   1.411       .  A
C2437      C2438   1.409       .  A
C2437      H2446   1.084       .  S
C2438      C2439   1.414       .  A
C2438      S2442   1.802       .  S
C2439      C2440   1.403       .  A
C2440      C2441   1.397       .  A
C2440      H2447   1.083       .  S
C2441      S2443   1.796       .  S
S2442      H2445   1.406       .  S
S2443      H2444   1.405       .  S
C2448      C2449   1.400       .  A
C2448      C2453   1.415       .  A
C2449      C2450   1.398       .  A
C2449      H2458   1.076       .  S
C2450      C2451   1.421       .  A
C2450      S2454   1.806       .  S
C2451      C2452   1.410       .  A
C2452      C2453   1.402       .  A
C2452      H2459   1.083       .  S
C2453      S2455   1.804       .  S
S2454      H2457   1.406       .  S
S2455      H2456   1.407       .  S
C2460      C2461   1.415       .  A
C2460      C2465   1.423       .  A
C2461      C2462   1.404       .  A
C2461      H2470   1.075       .  S
C2462      C2463   1.412       .  A
C2462      S2466   1.802       .  S
C2463      C2464   1.406       .  A
C2464      C2465   1.401       .  A
C2464      H2471   1.082       .  S
C2465      S2467   1.814       .  S
S2466      H2834   1.408       .  S
S2467      H2468   1.407       .  S
H2469      S2831   1.407       .  S
C2472      C2473   1.402       .  A
C2472      C2477   1.409       .  A
C2473      C2474   1.405       .  A
C2473      H2482   1.083       .  S
C2474      C2475   1.425       .  A
C2474      S2478   1.811       .  S
C2475      C2476   1.414       .  A
C2476      C2477   1.403       .  A
C2476      H2483   1.072       .  S
C2477      S2479   1.810       .  S
S2478      H2481   1.405       .  S
S2479      H2480   1.406       .  S
C2484      C2485   1.416       .  A
C2484      C2489   1.421       .  A
C2485      C2486   1.395       .  A
C2485      H2494   1.074       .  S
C2486      C2487   1.404       .  A
C2486      S2490   1.805       .  S
C2487      C2488   1.401       .  A
C2488      C2489   1.401       .  A
C2488      H2495   1.081       .  S
C2489      S2491   1.809       .  S
S2490      H2493   1.408       .  S
S2491      H2492   1.407       .  S
C2496      C2497   1.401       .  A
C2496      C2501   1.406       .  A
C2497      C2498   1.403       .  A
C2497      H2506   1.083       .  S
C2498      C2499   1.425       .  A
C2498      S2502   1.812       .  S
C2499      C2500   1.415       .  A
C2500      C2501   1.399       .  A
C2500      H2507   1.074       .  S
C2501      S2503   1.805       .  S
S2502      H2505   1.407       .  S
S2503      H2504   1.407       .  S
C2508      C2509   1.416       .  A
C2508      C2513   1.425       .  A
C2509      C2510   1.402       .  A
C2509      H2518   1.075       .  S
C2510      C2511   1.407       .  A
C2510      S2514   1.807       .  S
C2511      C2512   1.399       .  A
C2512      C2513   1.405       .  A
C2512      H2519   1.083       .  S
C2513      S2515   1.811       .  S
S2514      H2517   1.401       .  S
S2515      H2516   1.407       .  S
C2520      C2521   1.419       .  A
C2520      C2525   1.421       .  A
C2521      C2522   1.401       .  A
C2521      H2530   1.073       .  S
C2522      C2523   1.406       .  A
C2522      S2526   1.804       .  S
C2523      C2524   1.405       .  A
C2524      C2525   1.406       .  A
C2524      H2531   1.081       .  S
C2525      S2527   1.809       .  S
S2526      H2529   1.406       .  S
S2527      H2528   1.407       .  S
C2532      C2533   1.403       .  A
C2532      C2537   1.404       .  A
C2533      C2534   1.407       .  A
C2533      H2542   1.083       .  S
C2534      C2535   1.425       .  A
C2534      S2538   1.811       .  S
C2535      C2536   1.416       .  A
C2536      C2537   1.394       .  A
C2536      H2543   1.072       .  S
C2537      S2539   1.803       .  S
S2538      H2541   1.407       .  S
S2539      H2540   1.405       .  S
C2544      C2545   1.402       .  A
C2544      C2549   1.412       .  A
C2545      C2546   1.408       .  A
C2545      H2554   1.083       .  S
C2546      C2547   1.425       .  A
C2546      S2550   1.807       .  S
C2547      C2548   1.412       .  A
C2548      C2549   1.401       .  A
C2548      H2555   1.076       .  S
C2549      S2551   1.799       .  S
S2550      H2553   1.404       .  S
S2551      H2552   1.407       .  S
O2556      C2564   1.298       .  A
O2557      C2565   1.271       .  A
O2558      C2566   1.272       .  A
O2559      C2567   1.259       .  A
O2560      C2566   1.279       .  A
O2560     Co2577   2.026   1_656  S
O2561      C2567   1.265       .  A
O2562      C2565   1.261       .  A
O2563      C2564   1.263       .  A
O2563     Co2578   1.885   1_565  S
C2564      C2876   1.468       .  S
C2565      C2828   1.489       .  S
C2566      C2888   1.487       .  S
C2567      C2897   1.479       .  S
O2568      C2581   1.273       .  A
O2568     Co2576   1.980       .  S
O2569      C2582   1.259       .  A
O2570      C2583   1.296       .  A
O2571      C2584   1.276       .  A
O2571     Co2579   2.039       .  S
O2572      C2584   1.259       .  A
O2573      C2583   1.267       .  A
O2574      C2581   1.274       .  A
O2575      C2582   1.263       .  A
C2581      C2837   1.486       .  S
C2582      C2852   1.480       .  S
C2583      C2909   1.483       .  S
C2584      C2861   1.481       .  S
C2585      C2586   1.542       .  S
C2585      C2591   1.535       .  S
C2585      C2589   1.549       .  S
C2585      C2825   1.540       .  S
C2586      H2593   1.086       .  S
C2586      C2587   1.370       .  D
C2587      C2588   1.548       .  S
C2587      C2801   1.503       .  S
C2588      C2592   1.543       .  S
C2588      C2590   1.539       .  S
C2588      H2594   1.108       .  S
C2589      H2595   1.080       .  S
C2589      C2590   1.369       .  D
C2590      C2813   1.491       .  S
C2591      H2596   1.087       .  S
C2591      C2592   1.356       .  D
C2592      C2789   1.480       .  S
C2597      C2598   1.540       .  S
C2597      C2603   1.544       .  S
C2597      C2601   1.548       .  S
C2597      C2900   1.549       .  S
C2598      H2605   1.086       .  S
C2598      C2599   1.367       .  D
C2599      C2600   1.537       .  S
C2599      C2816   1.496       .  S
C2600      C2604   1.540       .  S
C2600      C2602   1.543       .  S
C2600      H2606   1.102       .  S
C2601      H2607   1.086       .  S
C2601      C2602   1.376       .  D
C2602      C2780   1.506       .  S
C2603      H2608   1.079       .  S
C2603      C2604   1.354       .  D
C2604      C2765   1.474       .  S
C2609      C2610   1.556       .  S
C2609      C2615   1.535       .  S
C2609      C2613   1.552       .  S
C2609      C2840   1.546       .  S
C2610      H2617   1.080       .  S
C2610      C2611   1.366       .  D
C2611      C2612   1.529       .  S
C2611      C2753   1.486       .  S
C2612      C2616   1.531       .  S
C2612      C2614   1.542       .  S
C2612      H2618   1.111       .  S
C2613      H2619   1.085       .  S
C2613      C2614   1.374       .  D
C2614      C2741   1.498       .  S
C2615      H2620   1.087       .  S
C2615      C2616   1.354       .  D
C2616      C2768   1.471       .  S
C2621      C2622   1.549       .  S
C2621      C2627   1.552       .  S
C2621      C2625   1.541       .  S
C2621      C2864   1.550       .  S
C2622      H2629   1.086       .  S
C2622      C2623   1.374       .  D
C2623      C2624   1.545       .  S
C2623      C2744   1.502       .  S
C2624      C2628   1.536       .  S
C2624      C2626   1.529       .  S
C2624      H2630   1.110       .  S
C2625      H2631   1.086       .  S
C2625      C2626   1.365       .  D
C2626      C2729   1.480       .  S
C2627      H2632   1.079       .  S
C2627      C2628   1.357       .  D
C2628      C2792   1.483       .  S
C2633      C2634   1.540       .  S
C2633      C2639   1.549       .  S
C2633      C2637   1.552       .  S
C2633      C2885   1.548       .  S
C2634      H2641   1.086       .  S
C2634      C2635   1.364       .  D
C2635      C2636   1.532       .  S
C2635      C2717   1.481       .  S
C2636      C2640   1.525       .  S
C2636      C2638   1.533       .  S
C2636      H2642   1.112       .  S
C2637      H2643   1.086       .  S
C2637      C2638   1.372       .  D
C2638      C2804   1.491       .  S
C2639      H2644   1.079       .  S
C2639      C2640   1.363       .  D
C2640      C2705   1.478       .  S
C2645      C2646   1.534       .  S
C2645      C2651   1.546       .  S
C2645      C2649   1.546       .  S
C2645      C2849   1.542       .  S
C2646      H2653   1.087       .  S
C2646      C2647   1.358       .  D
C2647      C2648   1.535       .  S
C2647      C2732   1.475       .  S
C2648      C2652   1.535       .  S
C2648      C2650   1.538       .  S
C2648      H2654   1.110       .  S
C2649      H2655   1.086       .  S
C2649      C2650   1.372       .  D
C2650      C2696   1.487       .  S
C2651      H2656   1.080       .  S
C2651      C2652   1.364       .  D
C2652      C2708   1.485       .  S
C2657      C2658   1.541       .  S
C2657      C2663   1.535       .  S
C2657      C2661   1.552       .  S
C2657      C2912   1.541       .  S
C2658      H2665   1.086       .  S
C2658      C2659   1.366       .  D
C2659      C2660   1.539       .  S
C2659      C2693   1.486       .  S
C2660      C2664   1.536       .  S
C2660      C2662   1.533       .  S
C2660      H2666   1.111       .  S
C2661      H2667   1.082       .  S
C2661      C2662   1.366       .  D
C2662      C2756   1.487       .  S
C2663      H2668   1.086       .  S
C2663      C2664   1.364       .  D
C2664      C2684   1.482       .  S
C2669      C2670   1.546       .  S
C2669      C2675   1.549       .  S
C2669      C2673   1.542       .  S
C2669      C2873   1.543       .  S
C2670      H2677   1.086       .  S
C2670      C2671   1.368       .  D
C2671      C2672   1.536       .  S
C2671      C2777   1.488       .  S
C2672      C2676   1.534       .  S
C2672      C2674   1.534       .  S
C2672      H2678   1.110       .  S
C2673      H2679   1.086       .  S
C2673      C2674   1.364       .  D
C2674      C2720   1.482       .  S
C2675      H2680   1.080       .  S
C2675      C2676   1.364       .  D
C2676      C2681   1.487       .  S
C2681      C2682   1.404       .  A
C2681      C2686   1.413       .  A
C2682      C2683   1.398       .  A
C2682      H2691   1.084       .  S
C2683      C2684   1.415       .  A
C2683      S2687   1.805       .  S
C2684      C2685   1.402       .  A
C2685      C2686   1.399       .  A
C2685      H2692   1.084       .  S
C2686      S2688   1.797       .  S
S2687      H2690   1.405       .  S
S2688      H2689   1.405       .  S
C2693      C2694   1.402       .  A
C2693      C2698   1.413       .  A
C2694      C2695   1.402       .  A
C2694      H2703   1.083       .  S
C2695      C2696   1.412       .  A
C2695      S2699   1.804       .  S
C2696      C2697   1.402       .  A
C2697      C2698   1.403       .  A
C2697      H2704   1.083       .  S
C2698      S2700   1.804       .  S
S2699      H2702   1.407       .  S
S2700      H2701   1.406       .  S
C2705      C2706   1.403       .  A
C2705      C2710   1.412       .  A
C2706      C2707   1.401       .  A
C2706      H2715   1.084       .  S
C2707      C2708   1.414       .  A
C2707      S2711   1.797       .  S
C2708      C2709   1.403       .  A
C2709      C2710   1.392       .  A
C2709      H2716   1.084       .  S
C2710      S2712   1.805       .  S
S2711      H2714   1.405       .  S
S2712      H2713   1.405       .  S
C2717      C2718   1.402       .  A
C2717      C2722   1.412       .  A
C2718      C2719   1.400       .  A
C2718      H2727   1.083       .  S
C2719      C2720   1.411       .  A
C2719      S2723   1.806       .  S
C2720      C2721   1.403       .  A
C2721      C2722   1.402       .  A
C2721      H2728   1.083       .  S
C2722      S2724   1.808       .  S
S2723      H2726   1.406       .  S
S2724      H2725   1.406       .  S
C2729      C2730   1.403       .  A
C2729      C2734   1.412       .  A
C2730      C2731   1.395       .  A
C2730      H2739   1.081       .  S
C2731      C2732   1.407       .  A
C2731      S2735   1.797       .  S
C2732      C2733   1.403       .  A
C2733      C2734   1.397       .  A
C2733      H2740   1.084       .  S
C2734      S2736   1.802       .  S
S2735      H2738   1.406       .  S
S2736      H2737   1.407       .  S
C2741      C2742   1.398       .  A
C2741      C2746   1.418       .  A
C2742      C2743   1.395       .  A
C2742      H2751   1.078       .  S
C2743      C2744   1.413       .  A
C2743      S2747   1.796       .  S
C2744      C2745   1.411       .  A
C2745      C2746   1.412       .  A
C2745      H2752   1.084       .  S
C2746      S2748   1.802       .  S
S2747      H2750   1.406       .  S
S2748      H2749   1.406       .  S
C2753      C2754   1.403       .  A
C2753      C2758   1.411       .  A
C2754      C2755   1.402       .  A
C2754      H2763   1.082       .  S
C2755      C2756   1.411       .  A
C2755      S2759   1.803       .  S
C2756      C2757   1.404       .  A
C2757      C2758   1.404       .  A
C2757      H2764   1.083       .  S
C2758      S2760   1.807       .  S
S2759      H2762   1.407       .  S
S2760      H2761   1.407       .  S
C2765      C2766   1.401       .  A
C2765      C2770   1.414       .  A
C2766      C2767   1.396       .  A
C2766      H2775   1.084       .  S
C2767      C2768   1.410       .  A
C2767      S2771   1.805       .  S
C2768      C2769   1.401       .  A
C2769      C2770   1.399       .  A
C2769      H2776   1.084       .  S
C2770      S2772   1.809       .  S
S2771      H2774   1.402       .  S
S2772      H2773   1.401       .  S
C2777      C2778   1.397       .  A
C2777      C2782   1.413       .  A
C2778      C2779   1.398       .  A
C2778      H2787   1.083       .  S
C2779      C2780   1.421       .  A
C2779      S2783   1.800       .  S
C2780      C2781   1.412       .  A
C2781      C2782   1.407       .  A
C2781      H2788   1.083       .  S
C2782      S2784   1.803       .  S
S2783      H2786   1.407       .  S
S2784      H2785   1.405       .  S
C2789      C2790   1.400       .  A
C2789      C2794   1.416       .  A
C2790      C2791   1.400       .  A
C2790      H2799   1.082       .  S
C2791      C2792   1.415       .  A
C2791      S2795   1.807       .  S
C2792      C2793   1.399       .  A
C2793      C2794   1.400       .  A
C2793      H2800   1.082       .  S
C2794      S2796   1.807       .  S
S2795      H2798   1.398       .  S
S2796      H2797   1.397       .  S
C2801      C2802   1.412       .  A
C2801      C2806   1.414       .  A
C2802      C2803   1.408       .  A
C2802      H2811   1.083       .  S
C2803      C2804   1.413       .  A
C2803      S2807   1.802       .  S
C2804      C2805   1.401       .  A
C2805      C2806   1.400       .  A
C2805      H2812   1.083       .  S
C2806      S2808   1.798       .  S
S2807      H2810   1.406       .  S
S2808      H2809   1.406       .  S
C2813      C2814   1.402       .  A
C2813      C2818   1.414       .  A
C2814      C2815   1.402       .  A
C2814      H2823   1.081       .  S
C2815      C2816   1.417       .  A
C2815      S2819   1.802       .  S
C2816      C2817   1.406       .  A
C2817      C2818   1.400       .  A
C2817      H2824   1.084       .  S
C2818      S2820   1.804       .  S
S2819      H2822   1.407       .  S
S2820      H2821   1.407       .  S
C2825      C2826   1.413       .  A
C2825      C2830   1.421       .  A
C2826      C2827   1.402       .  A
C2826      H2835   1.076       .  S
C2827      C2828   1.413       .  A
C2827      S2831   1.802       .  S
C2828      C2829   1.405       .  A
C2829      C2830   1.401       .  A
C2829      H2836   1.082       .  S
C2830      S2832   1.814       .  S
S2832      H2833   1.406       .  S
C2837      C2838   1.402       .  A
C2837      C2842   1.411       .  A
C2838      C2839   1.407       .  A
C2838      H2847   1.083       .  S
C2839      C2840   1.427       .  A
C2839      S2843   1.811       .  S
C2840      C2841   1.413       .  A
C2841      C2842   1.402       .  A
C2841      H2848   1.072       .  S
C2842      S2844   1.810       .  S
S2843      H2846   1.406       .  S
S2844      H2845   1.407       .  S
C2849      C2850   1.415       .  A
C2849      C2854   1.424       .  A
C2850      C2851   1.398       .  A
C2850      H2859   1.073       .  S
C2851      C2852   1.407       .  A
C2851      S2855   1.805       .  S
C2852      C2853   1.402       .  A
C2853      C2854   1.404       .  A
C2853      H2860   1.081       .  S
C2854      S2856   1.810       .  S
S2855      H2858   1.408       .  S
S2856      H2857   1.407       .  S
C2861      C2862   1.402       .  A
C2861      C2866   1.407       .  A
C2862      C2863   1.409       .  A
C2862      H2871   1.083       .  S
C2863      C2864   1.426       .  A
C2863      S2867   1.809       .  S
C2864      C2865   1.416       .  A
C2865      C2866   1.396       .  A
C2865      H2872   1.072       .  S
C2866      S2868   1.806       .  S
S2867      H2870   1.407       .  S
S2868      H2869   1.406       .  S
C2873      C2874   1.417       .  A
C2873      C2878   1.425       .  A
C2874      C2875   1.399       .  A
C2874      H2883   1.074       .  S
C2875      C2876   1.402       .  A
C2875      S2879   1.802       .  S
C2876      C2877   1.397       .  A
C2877      C2878   1.403       .  A
C2877      H2884   1.083       .  S
C2878      S2880   1.811       .  S
S2879      H2882   1.404       .  S
S2880      H2881   1.407       .  S
C2885      C2886   1.418       .  A
C2885      C2890   1.422       .  A
C2886      C2887   1.402       .  A
C2886      H2895   1.073       .  S
C2887      C2888   1.407       .  A
C2887      S2891   1.803       .  S
C2888      C2889   1.404       .  A
C2889      C2890   1.405       .  A
C2889      H2896   1.081       .  S
C2890      S2892   1.808       .  S
S2891      H2894   1.406   1_655  S
S2892      H2893   1.407       .  S
C2897      C2898   1.402       .  A
C2897      C2902   1.405       .  A
C2898      C2899   1.409       .  A
C2898      H2907   1.083       .  S
C2899      C2900   1.425       .  A
C2899      S2903   1.811       .  S
C2900      C2901   1.416       .  A
C2901      C2902   1.395       .  A
C2901      H2908   1.072       .  S
C2902      S2904   1.804       .  S
S2903      H2906   1.407       .  S
S2904      H2905   1.406       .  S
C2909      C2910   1.401       .  A
C2909      C2914   1.411       .  A
C2910      C2911   1.403       .  A
C2910      H2919   1.083       .  S
C2911      C2912   1.424       .  A
C2911      S2915   1.807       .  S
C2912      C2913   1.412       .  A
C2913      C2914   1.398       .  A
C2913      H2920   1.076       .  S
C2914      S2916   1.800       .  S
S2915      H2918   1.406       .  S
S2916      H2917   1.407       .  S
