geometry optimzed in LAMMPS
_audit_creation_date              2020-12-01 
_audit_creation_method            'lammps2cif' 
_symmetry_space_group_name_H-M    'P1' 
_symmetry_Int_Tables_number       1 
_symmetry_cell_setting            triclinic 
loop_ 
_symmetry_equiv_pos_as_xyz 
  x,y,z 
_cell_length_a                    46.51378375 
_cell_length_b                    46.241758732963795 
_cell_length_c                    45.96633928069617 
_cell_angle_alpha                 89.73813053186161 
_cell_angle_beta                  90.07385026493789 
_cell_angle_gamma                 89.92080481771602 
loop_ 
_atom_site_label 
_atom_site_type_symbol 
_atom_site_fract_x 
_atom_site_fract_y 
_atom_site_fract_z 
_atom_site_charge 
C1          C  0.38708626  0.62198590  0.60178058    -0.01500
N2          N  0.41783178  0.56477908  0.55522055    -0.05100
N3          N  0.39649957  0.57408359  0.57224738    -0.57200
N4          N  0.43802486  0.58367631  0.48808225    -0.04800
N5          N  0.43116416  0.60531648  0.47033146    -0.59400
N6          N  0.41755753  0.56389826  0.48757877    -0.04400
N7          N  0.39693277  0.57210930  0.46897807    -0.57200
N8          N  0.43902676  0.58376899  0.55561962    -0.04100
N9          N  0.43252817  0.60538865  0.57350060    -0.59700
C10         C  0.40601176  0.59924698  0.58450197     0.97100
C11         C  0.40566652  0.59822038  0.45790143     0.96800
N12         N  0.53039763  0.56324212  0.48778849    -0.05300
N13         N  0.55173435  0.57151324  0.47022876    -0.57800
N14         N  0.50944258  0.58286443  0.55489018    -0.03400
N15         N  0.51566528  0.60407532  0.57314622    -0.59100
N16         N  0.52994605  0.56309877  0.55561130    -0.05300
N17         N  0.55023374  0.57115411  0.57455028    -0.58100
N18         N  0.50949302  0.58265725  0.48707018    -0.03100
N19         N  0.51638203  0.60381236  0.46866136    -0.59100
Mn20       Mn  0.47406828  0.58304604  0.52130509     1.18400
C21         C  0.54270575  0.59676104  0.45767453     0.99200
C22         C  0.54090087  0.59680132  0.58606473     0.99800
N23         N  0.41718680  0.49161752  0.48850926    -0.05300
N24         N  0.39563177  0.48437410  0.47085221    -0.61700
N25         N  0.43934353  0.47181783  0.55576108    -0.04100
N26         N  0.43368488  0.45155695  0.57558325    -0.62300
N27         N  0.41938938  0.49222923  0.55655791    -0.04800
N28         N  0.40019523  0.48572043  0.57707606    -0.61900
N29         N  0.43704626  0.47109286  0.48823946    -0.03700
N30         N  0.42850914  0.44981170  0.47074533    -0.62600
Mn31       Mn  0.41776755  0.52798430  0.52193948     1.10700
C32         C  0.40253256  0.45817286  0.45946835     1.00400
C33         C  0.40921839  0.46015147  0.58914438     1.00400
N34         N  0.52976783  0.49083772  0.55521102    -0.04900
N35         N  0.54996930  0.48374386  0.57449107    -0.60200
N36         N  0.51059180  0.47080532  0.48713019    -0.04200
N37         N  0.51924563  0.44954357  0.46950006    -0.57000
N38         N  0.53037781  0.49138763  0.48746033    -0.05500
N39         N  0.55199067  0.48429044  0.46987186    -0.59800
N40         N  0.50956030  0.47078787  0.55511357    -0.04500
N41         N  0.51582315  0.45028833  0.57460629    -0.57000
Mn42       Mn  0.53025753  0.52711288  0.52157845     1.20200
Mn43       Mn  0.47408227  0.47093348  0.52120484     1.10100
Cl44       Cl  0.47401463  0.52723030  0.52130529    -0.85000
C45         C  0.54114631  0.45849482  0.58709180     0.97400
C46         C  0.54492212  0.45833893  0.45784297     0.97200
C47         C  0.55860155  0.44038338  0.61062227    -0.01500
C48         C  0.38392610  0.43904402  0.43763640    -0.01500
C49         C  0.56207228  0.61850280  0.43977587    -0.01500
C50         C  0.38844130  0.61824336  0.43574934    -0.01500
C51         C  0.56768639  0.43902612  0.44072526    -0.01500
C52         C  0.39183091  0.44239599  0.61264067    -0.01500
C53         C  0.55890994  0.61778615  0.60631250    -0.01500
C54         C  0.23982140  0.25075084  0.01376733     0.03300
C55         C  0.23351048  0.24564111  0.04357609     0.03300
C56         C  0.21164440  0.26172944  0.05721405    -0.17300
C57         C  0.19544532  0.28227900  0.04163247     0.03300
C58         C  0.20096050  0.28647991  0.01160479     0.03300
C59         C  0.22309650  0.27081488  0.99803927    -0.17300
H60         H  0.22747133  0.27442588  0.97515453     0.05300
H61         H  0.20684608  0.25796530  0.07996014     0.05300
C62         C  0.19565916  0.02382753  0.27947160     0.03300
C63         C  0.19781464  0.05366106  0.28636441     0.03300
C64         C  0.21968149  0.07058849  0.27379938    -0.17300
C65         C  0.23892935  0.05828530  0.25386372     0.03300
C66         C  0.23527094  0.02909762  0.24528048     0.03300
C67         C  0.21397844  0.01197728  0.25844086    -0.17300
H68         H  0.21244802  0.98921786  0.25315987     0.05300
H69         H  0.22190327  0.09311663  0.27975037     0.05300
C70         C  0.98633234  0.26567186  0.30458209     0.03300
C71         C  0.95858912  0.25794113  0.29411551     0.03300
C72         C  0.94502454  0.27583664  0.27303497    -0.17300
C73         C  0.95924347  0.30015021  0.26114809     0.03300
C74         C  0.98795349  0.30587702  0.26995250     0.03300
C75         C  0.00092351  0.28905303  0.29181829    -0.17300
H76         H  0.02222299  0.29469344  0.29948124     0.05300
H77         H  0.92364179  0.27056611  0.26540967     0.05300
C78         C  0.45835680  0.31741615  0.27405502     0.03300
C79         C  0.48797269  0.31168553  0.27932770     0.03300
C80         C  0.50291073  0.29174846  0.26211397    -0.17300
C81         C  0.48887712  0.27602089  0.24044974     0.03300
C82         C  0.45921072  0.28084928  0.23508296     0.03300
C83         C  0.44420236  0.30163401  0.25186947    -0.17300
H84         H  0.42171214  0.30575209  0.24740059     0.05300
H85         H  0.52544291  0.28750341  0.26649289     0.05300
C86         C  0.24052173  0.29544884  0.52218730     0.03300
C87         C  0.23958693  0.29716773  0.55289848     0.03300
C88         C  0.21943562  0.28072755  0.56846764    -0.17300
C89         C  0.20188295  0.26088675  0.55390972     0.03300
C90         C  0.20494399  0.25701694  0.52349712     0.03300
C91         C  0.22338963  0.27513981  0.50765873    -0.17300
H92         H  0.22489164  0.27302015  0.48424240     0.05300
H93         H  0.21778173  0.28300890  0.59185877     0.05300
C94         C  0.25941615  0.51089422  0.27465121     0.03300
C95         C  0.26383188  0.54115568  0.27197144     0.03300
C96         C  0.24909904  0.55675870  0.25015743    -0.17300
C97         C  0.22927217  0.54274763  0.23177168     0.03300
C98         C  0.22446755  0.51256742  0.23505460     0.03300
C99         C  0.23976621  0.49695904  0.25627440    -0.17300
H100        H  0.23561795  0.47407151  0.25918502     0.05300
H101        H  0.25148433  0.58003448  0.24887876     0.05300
C102        C  0.23867725  0.79857394  0.04302643     0.03300
C103        C  0.23994311  0.79891470  0.01219046     0.03300
C104        C  0.22444856  0.77796183  0.99645081    -0.17300
C105        C  0.20559539  0.75883566  0.01088270     0.03300
C106        C  0.19896647  0.76396457  0.04071923     0.03300
C107        C  0.21670476  0.78285972  0.05679744    -0.17300
H108        H  0.21331308  0.78592862  0.07980602     0.05300
H109        H  0.22643641  0.77680690  0.97306782     0.05300
C110        C  0.75904237  0.27426703  0.00928002     0.03300
C111        C  0.76582876  0.26775573  0.03864582     0.03300
C112        C  0.74841038  0.24811901  0.05429149    -0.17300
C113        C  0.72348334  0.23616037  0.04159211     0.03300
C114        C  0.71533859  0.24530081  0.01316810     0.03300
C115        C  0.73377647  0.26324599  0.99708389    -0.17300
H116        H  0.72761586  0.27001858  0.97533129     0.05300
H117        H  0.75384032  0.24274823  0.07660004     0.05300
C118        C  0.98478845  0.28902756  0.79531645     0.03300
C119        C  0.95506413  0.29260597  0.78897131     0.03300
C120        C  0.94278904  0.27755082  0.76573791    -0.17300
C121        C  0.95929881  0.25841161  0.74914834     0.03300
C122        C  0.98826757  0.25271252  0.75684743     0.03300
C123        C  0.00105169  0.26871648  0.77939840    -0.17300
H124        H  0.02339554  0.26501315  0.78496312     0.05300
H125        H  0.92038273  0.28105534  0.76023893     0.05300
C126        C  0.68890732  0.50326736  0.27552092     0.03300
C127        C  0.69668243  0.53196140  0.28366824     0.03300
C128        C  0.71998485  0.54536204  0.26909391    -0.17300
C129        C  0.73538245  0.53091119  0.24688395     0.03300
C130        C  0.72672800  0.50288487  0.23800821     0.03300
C131        C  0.70392733  0.48921006  0.25280263    -0.17300
H132        H  0.69764154  0.46759371  0.24642877     0.05300
H133        H  0.72622905  0.56708893  0.27510751     0.05300
C134        C  0.24643174  0.53817728  0.75406928     0.03300
C135        C  0.25557539  0.51002696  0.76323022     0.03300
C136        C  0.23978048  0.49574106  0.78554485    -0.17300
C137        C  0.21597426  0.50913960  0.79930285     0.03300
C138        C  0.20785846  0.53755518  0.79084590     0.03300
C139        C  0.22301863  0.55157496  0.76830885    -0.17300
H140        H  0.21654034  0.57316631  0.76177118     0.05300
H141        H  0.24657775  0.47455651  0.79295723     0.05300
C142        C  0.89051487  0.61221832  0.93538448    -0.01500
N143        N  0.03125216  0.55849195  0.99143629    -0.05100
N144        N  0.05234401  0.56540004  0.97304553    -0.57200
N145        N  0.00967648  0.57855552  0.05770277    -0.04800
N146        N  0.01805243  0.60029393  0.07439266    -0.59400
N147        N  0.02929202  0.55784567  0.05864538    -0.04400
N148        N  0.05066647  0.56526352  0.07630334    -0.57200
N149        N  0.01109301  0.57868877  0.99067916    -0.04100
N150        N  0.01852439  0.59924225  0.97175848    -0.59700
C151        C  0.04435615  0.59089564  0.96038174     0.97100
C152        C  0.04330091  0.59165797  0.08670278     0.96800
N153        N  0.91758206  0.55931212  0.05553984    -0.05300
N154        N  0.89532521  0.56610578  0.07209783    -0.57800
N155        N  0.93970256  0.57933643  0.98891180    -0.03400
N156        N  0.93331402  0.60048091  0.97031448    -0.59100
N157        N  0.91924952  0.55952432  0.98843939    -0.05300
N158        N  0.89876559  0.56742497  0.96964056    -0.58100
N159        N  0.93700123  0.58010893  0.05674085    -0.03100
N160        N  0.92755353  0.60101594  0.07460421    -0.59100
Mn161      Mn  0.97440284  0.57933842  0.02364530     1.18400
C162        C  0.90126502  0.59187007  0.08469474     0.99200
C163        C  0.90755398  0.59332132  0.95831630     0.99800
N164        N  0.02916215  0.48690216  0.05980559    -0.05300
N165        N  0.04835843  0.48033797  0.08048423    -0.61700
N166        N  0.01124905  0.46734654  0.99041709    -0.04100
N167        N  0.01896471  0.44737486  0.97113461    -0.62300
N168        N  0.03154165  0.48725730  0.99199275    -0.04800
N169        N  0.05305325  0.48079139  0.97410458    -0.61900
N170        N  0.00945716  0.46641478  0.05833853    -0.03700
N171        N  0.01558958  0.44579086  0.07764979    -0.62600
Mn172      Mn  0.03033224  0.52258317  0.02552729     1.10700
C173        C  0.03960924  0.45455108  0.09212275     1.00400
C174        C  0.04528360  0.45565204  0.96098890     1.00400
N175        N  0.91883286  0.48780148  0.98884584    -0.04900
N176        N  0.89763328  0.48107743  0.97068071    -0.60200
N177        N  0.93799037  0.46661118  0.05643831    -0.04200
N178        N  0.93000846  0.44512807  0.07409742    -0.57000
N179        N  0.91790782  0.48693010  0.05600228    -0.05500
N180        N  0.89622259  0.47906360  0.07319991    -0.59800
N181        N  0.93845176  0.46709991  0.98893709    -0.04500
N182        N  0.93022173  0.44625307  0.97075165    -0.57000
Mn183      Mn  0.91855712  0.52337434  0.02225299     1.20200
Mn184      Mn  0.97436064  0.46663536  0.02333828     1.10100
Cl185      Cl  0.97436859  0.52297696  0.02370217    -0.85000
C186        C  0.90484758  0.45518751  0.95870159     0.97400
C187        C  0.90401396  0.45313948  0.08514925     0.97200
C188        C  0.88302146  0.43252529  0.10238123    -0.01500
C189        C  0.06324183  0.44015106  0.93651404    -0.01500
C190        C  0.06231734  0.60933086  0.93759308    -0.01500
C191        C  0.88452003  0.43868663  0.93643146    -0.01500
C192        C  0.87847523  0.60750965  0.10536291    -0.01500
C193        C  0.70628256  0.51220625  0.75178174     0.03300
C194        C  0.70925879  0.54263738  0.74900800     0.03300
C195        C  0.72985005  0.55744046  0.76564398    -0.17300
C196        C  0.74797355  0.54230619  0.78482816     0.03300
C197        C  0.74590585  0.51172833  0.78694181     0.03300
C198        C  0.72487038  0.49692541  0.77065372    -0.17300
H199        H  0.72291263  0.47367865  0.77278393     0.05300
H200        H  0.73130341  0.58078462  0.76413862     0.05300
C201        C  0.06382068  0.61211665  0.10357384    -0.01500
C202        C  0.05566563  0.43538162  0.11595146    -0.01500
C203        C  0.26075551  0.00531268  0.78303893     0.03300
C204        C  0.25521655  0.03509581  0.78769137     0.03300
C205        C  0.23447896  0.04957646  0.77092781    -0.17300
C206        C  0.21912668  0.03490257  0.74932100     0.03300
C207        C  0.22464863  0.00520841  0.74421917     0.03300
C208        C  0.24539075  0.99055660  0.76120540    -0.17300
H209        H  0.24921195  0.96771485  0.75776432     0.05300
H210        H  0.23024615  0.07230169  0.77473574     0.05300
C211        C  0.50165558  0.75846589  0.28855760     0.03300
C212        C  0.47184989  0.75352764  0.28459741     0.03300
C213        C  0.45604520  0.77176488  0.26619080    -0.17300
C214        C  0.46987707  0.79383677  0.25057749     0.03300
C215        C  0.50028026  0.79666286  0.25234119     0.03300
C216        C  0.51582202  0.77935692  0.27184921    -0.17300
H217        H  0.53873058  0.78266018  0.27458054     0.05300
H218        H  0.43288767  0.76972337  0.26537160     0.05300
C219        C  0.45240556  0.27116213  0.73442893     0.03300
C220        C  0.48274803  0.27375813  0.73294815     0.03300
C221        C  0.49984419  0.25689731  0.75178808    -0.17300
C222        C  0.48704606  0.23672373  0.77086137     0.03300
C223        C  0.45684495  0.23200686  0.76984350     0.03300
C224        C  0.43980874  0.24944977  0.75157477    -0.17300
H225        H  0.41671933  0.24684751  0.75124573     0.05300
H226        H  0.52286349  0.26035555  0.75252237     0.05300
C227        C  0.56229441  0.11888209  0.94227227    -0.01500
N228        N  0.50842393  0.97528836  0.98976925    -0.05100
N229        N  0.51347026  0.95551142  0.96962520    -0.57200
N230        N  0.53111608  0.99297929  0.05714798    -0.04800
N231        N  0.55281642  0.98524578  0.07421502    -0.59400
N232        N  0.51122445  0.97263999  0.05719453    -0.04400
N233        N  0.51975869  0.95068994  0.07383396    -0.57200
N234        N  0.52946242  0.99449220  0.98983429    -0.04100
N235        N  0.54939542  0.98702321  0.97033031    -0.59700
C236        C  0.53895385  0.96279137  0.95711704     0.97100
C237        C  0.54530869  0.95912336  0.08540210     0.96800
N238        N  0.51214688  0.08335586  0.06224440    -0.05300
N239        N  0.51919118  0.10160246  0.08364076    -0.57800
N240        N  0.53068939  0.06584342  0.99246550    -0.03400
N241        N  0.55117206  0.07315636  0.97377507    -0.59100
N242        N  0.51088416  0.08623629  0.99324491    -0.05300
N243        N  0.51771375  0.10726431  0.97452909    -0.58100
N244        N  0.53228091  0.06330258  0.05997547    -0.03100
N245        N  0.55313608  0.06812549  0.07916738    -0.59100
Mn246      Mn  0.53101582  0.02917802  0.02474632     1.18400
C247        C  0.54518105  0.09218099  0.09416142     0.99200
C248        C  0.54270164  0.09861399  0.96152766     0.99800
N249        N  0.43899903  0.97272885  0.06003756    -0.05300
N250        N  0.43143420  0.95189553  0.07869207    -0.61700
N251        N  0.41852369  0.99216716  0.99215046    -0.04100
N252        N  0.39751327  0.98326669  0.97443684    -0.62300
N253        N  0.43894131  0.97236970  0.99279138    -0.04800
N254        N  0.43200744  0.95014835  0.97602641    -0.61900
N255        N  0.41930966  0.99339091  0.06032288    -0.03700
N256        N  0.39881157  0.98697739  0.07949048    -0.62600
Mn257      Mn  0.47450906  0.97321113  0.02523981     1.10700
C258        C  0.40637993  0.96095684  0.09134156     1.00400
C259        C  0.40643572  0.95711455  0.96367386     1.00400
N260        N  0.44037516  0.08511779  0.99357114    -0.04900
N261        N  0.43401153  0.10560057  0.97421150    -0.60200
N262        N  0.41946449  0.06487325  0.06015292    -0.04200
N263        N  0.39889575  0.07215773  0.07898110    -0.57000
N264        N  0.44040095  0.08414484  0.06131749    -0.05500
N265        N  0.43419481  0.10423391  0.08095547    -0.59800
N266        N  0.42113871  0.06412583  0.99194243    -0.04500
N267        N  0.40216905  0.06999856  0.97105022    -0.57000
Mn268      Mn  0.47590919  0.08515135  0.02783713     1.20200
Mn269      Mn  0.41925688  0.02878288  0.02599429     1.10100
Cl270      Cl  0.47508118  0.02912865  0.02618127    -0.85000
C271        C  0.41005981  0.09613772  0.95997634     0.97400
C272        C  0.40807948  0.09684132  0.09221101     0.97200
C273        C  0.56617496  0.93907467  0.10241919    -0.01500
C274        C  0.38718091  0.93460943  0.94689162    -0.01500
C275        C  0.39374485  0.11482453  0.93651959    -0.01500
C276        C  0.55668053  0.94056632  0.93875089    -0.01500
C277        C  0.38725056  0.94321333  0.11387830    -0.01500
C278        C  0.45414954  0.75686288  0.75975564     0.03300
C279        C  0.48446533  0.75847835  0.75739668     0.03300
C280        C  0.49937044  0.77989208  0.77276041    -0.17300
C281        C  0.48493252  0.79696291  0.79343101     0.03300
C282        C  0.45593322  0.79040038  0.80061898     0.03300
C283        C  0.44020632  0.77168771  0.78241609    -0.17300
H284        H  0.41731082  0.76894569  0.78566153     0.05300
H285        H  0.52197676  0.78336449  0.76839491     0.05300
C286        C  0.39179305  0.11489441  0.11646384    -0.01500
C287        C  0.56390364  0.10557068  0.11982323    -0.01500
C288        C  0.97976738  0.73761778  0.26095294     0.03300
C289        C  0.95026039  0.74503338  0.26297606     0.03300
C290        C  0.94199658  0.76721695  0.28317286    -0.17300
C291        C  0.96349281  0.78220344  0.30001284     0.03300
C292        C  0.99128194  0.77355393  0.29561342     0.03300
C293        C  0.00000198  0.75174048  0.27762366    -0.17300
H294        H  0.02276380  0.74720936  0.27504447     0.05300
H295        H  0.91944740  0.77238476  0.28512707     0.05300
C296        C  0.68549041  0.99046662  0.26864296     0.03300
C297        C  0.67575040  0.01798919  0.27801800     0.03300
C298        C  0.69152619  0.03266292  0.29973437    -0.17300
C299        C  0.71589753  0.01966014  0.31262894     0.03300
C300        C  0.72246042  0.99036911  0.30614665     0.03300
C301        C  0.70735784  0.97619369  0.28398934    -0.17300
H302        H  0.71348837  0.95456208  0.27763711     0.05300
H303        H  0.68582195  0.05461630  0.30545805     0.05300
C304        C  0.72097009  0.30883863  0.51659054     0.03300
C305        C  0.72170911  0.30818780  0.54748017     0.03300
C306        C  0.73817991  0.28671589  0.56175055    -0.17300
C307        C  0.75499713  0.26701683  0.54564805     0.03300
C308        C  0.75606868  0.26965243  0.51488311     0.03300
C309        C  0.73878331  0.29023414  0.50062845    -0.17300
H310        H  0.73759678  0.29026585  0.47708590     0.05300
H311        H  0.73756886  0.28505648  0.58525430     0.05300
C312        C  0.24621328  0.77125839  0.49970198     0.03300
C313        C  0.23891265  0.76196371  0.52818592     0.03300
C314        C  0.21566509  0.77497044  0.54267579    -0.17300
C315        C  0.19943552  0.79690118  0.52905982     0.03300
C316        C  0.20725671  0.80682343  0.50087394     0.03300
C317        C  0.23043038  0.79367594  0.48629933    -0.17300
H318        H  0.23628471  0.80098838  0.46468283     0.05300
H319        H  0.20996953  0.76775211  0.56437032     0.05300
C320        C  0.87981532  0.10752427  0.43265209    -0.01500
N321        N  0.93631349  0.05660125  0.58022090    -0.05100
N322        N  0.92954793  0.07427651  0.60171870    -0.57200
N323        N  0.91754061  0.99015271  0.55838372    -0.04800
N324        N  0.89670063  0.97176544  0.56587056    -0.59400
N325        N  0.93777087  0.98997946  0.57863706    -0.04400
N326        N  0.93066319  0.97163442  0.59980812    -0.57200
N327        N  0.91625965  0.05779766  0.55985599    -0.04100
N328        N  0.89619070  0.07697460  0.56747236    -0.59700
C329        C  0.90467398  0.08749678  0.59386162     0.97100
C330        C  0.90522725  0.95956097  0.59158635     0.96800
N331        N  0.93868961  0.99587813  0.46534552    -0.05300
N332        N  0.93310440  0.97809222  0.44342442    -0.57800
N333        N  0.91423819  0.05950325  0.48728687    -0.03400
N334        N  0.89135266  0.07469382  0.47839188    -0.59100
N335        N  0.93534714  0.06247614  0.46825644    -0.05300
N336        N  0.92699705  0.08005016  0.44687692    -0.58100
N337        N  0.91901184  0.99279394  0.48586454    -0.03100
N338        N  0.90027157  0.97249738  0.47807866    -0.59100
Mn339      Mn  0.91645577  0.02501458  0.52296049     1.18400
C340        C  0.90892303  0.96346343  0.45130490     0.99200
C341        C  0.89944893  0.08790514  0.45304454     0.99800
N342        N  0.00910756  0.99167564  0.57930485    -0.05300
N343        N  0.01758218  0.97317483  0.59996590    -0.61700
N344        N  0.02770344  0.05981629  0.56108963    -0.04100
N345        N  0.04886615  0.07736831  0.56913566    -0.62300
N346        N  0.00770134  0.05858176  0.58136663    -0.04800
N347        N  0.01531760  0.07550841  0.60333495    -0.61900
N348        N  0.02926095  0.99385722  0.55926663    -0.03700
N349        N  0.05149665  0.97741340  0.56666814    -0.62600
Mn350      Mn  0.97256433  0.02416286  0.57999556     1.10700
C351        C  0.04426070  0.96387632  0.59188508     1.00400
C352        C  0.04115456  0.08742310  0.59565083     1.00400
N353        N  0.00797160  0.06520483  0.47000959    -0.04900
N354        N  0.01636419  0.08472755  0.45029653    -0.60200
N355        N  0.02851255  0.99734275  0.48716797    -0.04200
N356        N  0.04953940  0.97954907  0.47953379    -0.57000
N357        N  0.00886903  0.99831472  0.46644998    -0.05500
N358        N  0.01641401  0.98095377  0.44479081    -0.59800
N359        N  0.02730924  0.06379261  0.49106798    -0.04500
N360        N  0.04840962  0.08238998  0.48613469    -0.57000
Mn361      Mn  0.97274682  0.03080774  0.46733998     1.20200
Mn362      Mn  0.02803862  0.02850983  0.52449198     1.10100
Cl363      Cl  0.97236784  0.02714118  0.52369655    -0.85000
C364        C  0.04140497  0.09607686  0.46095972     0.97400
C365        C  0.04186358  0.96896708  0.45301627     0.97200
C366        C  0.89411266  0.93979934  0.43212537    -0.01500
C367        C  0.06077810  0.94748072  0.43499871    -0.01500
C368        C  0.06505974  0.94188511  0.60803315    -0.01500
C369        C  0.88832413  0.10887956  0.61481702    -0.01500
C370        C  0.88534004  0.94175431  0.61283468    -0.01500
C371        C  0.72073922  0.74539261  0.50305226     0.03300
C372        C  0.72111625  0.74388581  0.53384224     0.03300
C373        C  0.74097506  0.76082457  0.54936438    -0.17300
C374        C  0.75905306  0.78047297  0.53455785     0.03300
C375        C  0.75545912  0.78471047  0.50413956     0.03300
C376        C  0.73687115  0.76652418  0.48857795    -0.17300
H377        H  0.73475457  0.76890933  0.46521613     0.05300
H378        H  0.74184053  0.75934584  0.57286388     0.05300
C379        C  0.06307804  0.11587910  0.44405237    -0.01500
C380        C  0.05927505  0.10779496  0.61587517    -0.01500
C381        C  0.96359242  0.76285089  0.79846338     0.03300
C382        C  0.99311759  0.76710256  0.80479217     0.03300
C383        C  0.00864991  0.78771957  0.78846825    -0.17300
C384        C  0.99435881  0.80578480  0.76812680     0.03300
C385        C  0.96391848  0.80422314  0.76569346     0.03300
C386        C  0.94902169  0.78205489  0.77999508    -0.17300
H387        H  0.92607824  0.77966003  0.77665263     0.05300
H388        H  0.03171287  0.78904044  0.79108620     0.05300
C389        C  0.70528813  0.03490211  0.79427250     0.03300
C390        C  0.69677473  0.00737580  0.78391624     0.03300
C391        C  0.71059793  0.99503169  0.75973565    -0.17300
C392        C  0.73344032  0.00951133  0.74596242     0.03300
C393        C  0.74272832  0.03650096  0.75725714     0.03300
C394        C  0.72843127  0.04908941  0.78097006    -0.17300
H395        H  0.73499148  0.07018718  0.78868884     0.05300
H396        H  0.70378124  0.97407327  0.75190834     0.05300
C397        C  0.74310386  0.76227362  0.99863327     0.03300
C398        C  0.73274774  0.75133894  0.02560660     0.03300
C399        C  0.70805171  0.76367782  0.03828752    -0.17300
C400        C  0.69335853  0.78667366  0.02459556     0.03300
C401        C  0.70416422  0.79814193  0.99808272     0.03300
C402        C  0.72859764  0.78554384  0.98512138    -0.17300
H403        H  0.73667653  0.79421578  0.96478603     0.05300
H404        H  0.70009442  0.75522096  0.05876194     0.05300
C405        C  0.93964354  0.87560697  0.73342879    -0.13300
C406        C  0.92905036  0.86714849  0.70615252     0.17000
C407        C  0.92593856  0.83726053  0.70048883     0.03300
C408        C  0.93586867  0.81675549  0.72082111    -0.11900
C409        C  0.94784367  0.82549674  0.74739304    -0.02900
C410        C  0.94812213  0.85517911  0.75435035     0.02600
C411        C  0.92167745  0.88967687  0.68386515     0.09400
N412        N  0.91166857  0.82745718  0.67478709     0.65800
H413        H  0.93488792  0.79395773  0.71557199     0.18700
N414        N  0.95636861  0.86477391  0.78278655     0.76200
H415        H  0.94130606  0.89831716  0.73866002     0.10200
C416        C  0.90468993  0.91386620  0.69069137     0.03900
C417        C  0.89583877  0.93288192  0.66863505    -0.04800
C418        C  0.90380315  0.92927826  0.63897975    -0.23200
C419        C  0.92494172  0.90746751  0.63359839     0.13100
C420        C  0.93259124  0.88756570  0.65554164    -0.12400
N421        N  0.89288199  0.91751842  0.71919675     0.64800
H422        H  0.87930029  0.94730869  0.67549596     0.12700
N423        N  0.93765448  0.90386021  0.60550081     0.61400
H424        H  0.94743081  0.87035672  0.65033548     0.08800
O425        O  0.97039220  0.88792971  0.78570471    -0.40000
O426        O  0.94512289  0.85321199  0.80494054    -0.39200
O427        O  0.92520452  0.81263790  0.65632943    -0.39200
O428        O  0.88461145  0.82881588  0.67334513    -0.36900
O429        O  0.95954325  0.91867048  0.59913175    -0.37800
O430        O  0.93321032  0.88070860  0.59178658    -0.34000
O431        O  0.89919695  0.93971063  0.73373610    -0.35400
O432        O  0.87276239  0.90130396  0.72774442    -0.39700
C433        C  0.79020792  0.97069328  0.70203119    -0.13300
C434        C  0.78970700  0.98684365  0.67603308     0.17000
C435        C  0.76460025  0.00331125  0.66990654     0.03300
C436        C  0.74472395  0.00859793  0.69244741    -0.11900
C437        C  0.74843220  0.99645381  0.72030832    -0.02900
C438        C  0.76984468  0.97523434  0.72407167     0.02600
C439        C  0.81421690  0.98357318  0.65512625     0.09400
N440        N  0.75783041  0.01329019  0.64103453     0.65800
H441        H  0.72696001  0.02329797  0.68855383     0.18700
N442        N  0.77094650  0.95792804  0.74992602     0.76200
H443        H  0.80670783  0.95443413  0.70531128     0.10200
C444        C  0.84308860  0.99133904  0.66216899     0.03900
C445        C  0.86543315  0.98409595  0.64282349    -0.04800
C446        C  0.86071771  0.96324347  0.62135927    -0.23200
C447        C  0.83205556  0.96150644  0.61045328     0.13100
C448        C  0.80911231  0.97109302  0.62781546    -0.12400
N449        N  0.85102311  0.00373889  0.68968650     0.64800
H450        H  0.88738048  0.98933943  0.64870693     0.12700
N451        N  0.82584217  0.94997436  0.58225538     0.61400
H452        H  0.78728089  0.96692200  0.62078346     0.08800
O453        O  0.75089004  0.94025686  0.75497675    -0.40000
O454        O  0.79422811  0.95553478  0.76384065    -0.39200
O455        O  0.73312245  0.00867123  0.63066564    -0.39200
O456        O  0.77646714  0.02537906  0.62524800    -0.36900
O457        O  0.83585023  0.96231795  0.55993456    -0.37800
O458        O  0.80640150  0.93119341  0.57930839    -0.34000
O459        O  0.84489337  0.99058380  0.71293899    -0.35400
O460        O  0.87131682  0.02180380  0.69044740    -0.39700
C461        C  0.79349570  0.84042070  0.57828240    -0.13300
C462        C  0.82277737  0.83833040  0.57013042     0.17000
C463        C  0.83136893  0.81367411  0.55413637     0.03300
C464        C  0.81032024  0.79453155  0.54336890    -0.11900
C465        C  0.78110319  0.79767310  0.55056094    -0.02900
C466        C  0.77307851  0.81986753  0.56966892     0.02600
C467        C  0.84313548  0.86156109  0.58054065     0.09400
N468        N  0.86109599  0.80623988  0.55088599     0.65800
H469        H  0.81677195  0.77667156  0.52965668     0.18700
N470        N  0.74414047  0.82225347  0.57993916     0.76200
H471        H  0.78619946  0.85844835  0.59132435     0.10200
C472        C  0.86238077  0.87757601  0.56273653     0.03900
C473        C  0.87556985  0.90309479  0.57306889    -0.04800
C474        C  0.87071867  0.91337880  0.60133226    -0.23200
C475        C  0.85264027  0.89571058  0.61969159     0.13100
C476        C  0.84003738  0.87047221  0.60920250    -0.12400
N477        N  0.86786033  0.86977171  0.53345352     0.64800
H478        H  0.88965085  0.91487196  0.55855566     0.12700
N479        N  0.84610479  0.90241236  0.64932665     0.61400
H480        H  0.82636648  0.85813648  0.62377011     0.08800
O481        O  0.72418257  0.82991252  0.56294942    -0.40000
O482        O  0.73821332  0.81470925  0.60565247    -0.39200
O483        O  0.87731644  0.80607133  0.57292487    -0.39200
O484        O  0.86970125  0.79441676  0.52777917    -0.36900
O485        O  0.82418549  0.91753725  0.65454278    -0.37800
O486        O  0.85381955  0.88445816  0.66856317    -0.34000
O487        O  0.85925737  0.88709045  0.51417856    -0.35400
O488        O  0.88991595  0.85479016  0.52821230    -0.39700
C489        C  0.81767053  0.05379816  0.73181151    -0.13300
C490        C  0.81165496  0.06844850  0.70569433     0.17000
C491        C  0.78306533  0.07692826  0.69964285     0.03300
C492        C  0.76092290  0.06860904  0.71838769    -0.11900
C493        C  0.76676990  0.05208263  0.74325729    -0.02900
C494        C  0.79550252  0.04610573  0.75093298     0.02600
C495        C  0.83502720  0.07398140  0.68446965     0.09400
N496        N  0.77612612  0.09379529  0.67444896     0.65800
H497        H  0.73886185  0.07364951  0.71264864     0.18700
N498        N  0.80236971  0.03243295  0.77805826     0.76200
H499        H  0.83960198  0.04795238  0.73718835     0.10200
C500        C  0.86011759  0.08886889  0.69203669     0.03900
C501        C  0.87908391  0.09770174  0.67014932    -0.04800
C502        C  0.87489742  0.09069182  0.64031963    -0.23200
C503        C  0.85205494  0.07100320  0.63432539     0.13100
C504        C  0.83217665  0.06389665  0.65605700    -0.12400
N505        N  0.86482640  0.09867954  0.72115026     0.64800
H506        H  0.89371178  0.11398781  0.67718088     0.12700
N507        N  0.84678970  0.06016320  0.60572335     0.61400
H508        H  0.81406433  0.05048968  0.65067982     0.08800
O509        O  0.81931449  0.01110880  0.77864828    -0.40000
O510        O  0.79636094  0.04518232  0.80150323    -0.39200
O511        O  0.76301629  0.08211173  0.65354319    -0.39200
O512        O  0.77645651  0.12100302  0.67620192    -0.36900
O513        O  0.86002051  0.03775940  0.59766057    -0.37800
O514        O  0.82368342  0.06694263  0.59294955    -0.34000
O515        O  0.88738908  0.09128077  0.73454124    -0.35400
O516        O  0.84842789  0.11748436  0.73206265    -0.39700
C517        C  0.06167261  0.88516672  0.67150650    -0.13300
C518        C  0.03385154  0.88755567  0.68181194     0.17000
C519        C  0.01569442  0.90925467  0.67006199     0.03300
C520        C  0.02473122  0.92481289  0.64508694    -0.11900
C521        C  0.05328320  0.92321027  0.63454019    -0.02900
C522        C  0.07211484  0.90339758  0.64979571     0.02600
C523        C  0.02483063  0.86616755  0.70422691     0.09400
N524        N  0.98966856  0.91780768  0.68469474     0.65800
H525        H  0.00952261  0.93939069  0.63563410     0.18700
N526        N  0.10254593  0.90229252  0.64532559     0.76200
H527        H  0.07608214  0.86942705  0.68132616     0.10200
C528        C  0.01309121  0.83944415  0.69584656     0.03900
C529        C  0.00572480  0.81895638  0.71702685    -0.04800
C530        C  0.01043404  0.82415448  0.74677249    -0.23200
C531        C  0.02562058  0.84931240  0.75484197     0.13100
C532        C  0.03208619  0.87039516  0.73360418    -0.12400
N533        N  0.00969782  0.83233621  0.66580834     0.64800
H534        H  0.99534160  0.79910461  0.71029982     0.12700
N535        N  0.03584109  0.85309536  0.78393564     0.61400
H536        H  0.04341552  0.88985304  0.73989190     0.08800
O537        O  0.11866231  0.90961320  0.66610234    -0.40000
O538        O  0.11276258  0.88572526  0.62628341    -0.39200
O539        O  0.98724083  0.91362312  0.71170797    -0.39200
O540        O  0.97257230  0.93540686  0.67264191    -0.36900
O541        O  0.02971826  0.87591758  0.79753064    -0.37800
O542        O  0.05671593  0.83788008  0.79264937    -0.34000
O543        O  0.03091309  0.82254498  0.65187456    -0.35400
O544        O  0.98482914  0.82998262  0.65516858    -0.39700
C545        C  0.80506461  0.82754906  0.45410463    -0.13300
C546        C  0.80634210  0.85439681  0.46864701     0.17000
C547        C  0.78589118  0.85927204  0.49113547     0.03300
C548        C  0.76747850  0.83701633  0.49981024    -0.11900
C549        C  0.77040428  0.80895216  0.48892208    -0.02900
C550        C  0.78863221  0.80446875  0.46501395     0.02600
C551        C  0.82978648  0.87586084  0.46127497     0.09400
N552        N  0.78399237  0.88597341  0.50660099     0.65800
H553        H  0.75211060  0.84125898  0.51686559     0.18700
N554        N  0.79204956  0.77628980  0.45277015     0.76200
H555        H  0.81791186  0.82378806  0.43496527     0.10200
C556        C  0.85821857  0.86709679  0.45492679     0.03900
C557        C  0.87985884  0.88760786  0.45021209    -0.04800
C558        C  0.87512166  0.91795982  0.45103078    -0.23200
C559        C  0.84703564  0.92622705  0.46091716     0.13100
C560        C  0.82478190  0.90571315  0.46326882    -0.12400
N561        N  0.86625268  0.83727962  0.45314959     0.64800
H562        H  0.89955068  0.87810009  0.44501546     0.12700
N563        N  0.83944606  0.95566090  0.46632259     0.61400
H564        H  0.80329258  0.91369011  0.46679341     0.08800
O565        O  0.78492399  0.77173162  0.42670284    -0.40000
O566        O  0.80191732  0.75581678  0.46807566    -0.39200
O567        O  0.76166490  0.90131601  0.50396854    -0.39200
O568        O  0.80092919  0.89072671  0.52746382    -0.36900
O569        O  0.81881115  0.96639477  0.45211356    -0.37800
O570        O  0.84482054  0.96594681  0.49110459    -0.34000
O571        O  0.87108975  0.82652937  0.42843729    -0.35400
O572        O  0.87672595  0.82502524  0.47530163    -0.39700
C573        C  0.14897695  0.85319017  0.46670537    -0.13300
C574        C  0.15449753  0.88011678  0.47971424     0.17000
C575        C  0.18047771  0.88366615  0.49534303     0.03300
C576        C  0.19898450  0.85994954  0.49932707    -0.11900
C577        C  0.19232178  0.83257116  0.48816376    -0.02900
C578        C  0.16780784  0.82967108  0.47038030     0.02600
C579        C  0.13239100  0.90341390  0.47638468     0.09400
N580        N  0.18801393  0.91061427  0.50842818     0.65800
H581        H  0.21806795  0.86258882  0.51251713     0.18700
N582        N  0.16163066  0.80295328  0.45617312     0.76200
H583        H  0.12972442  0.85036865  0.45370880     0.10200
C584        C  0.13756267  0.92916219  0.46081281     0.03900
C585        C  0.11423964  0.94660401  0.45245602    -0.04800
C586        C  0.08541490  0.93733754  0.45655063    -0.23200
C587        C  0.08113725  0.91625508  0.47878945     0.13100
C588        C  0.10441794  0.89840928  0.48672503    -0.12400
N589        N  0.16567137  0.93643470  0.45048003     0.64800
H590        H  0.11892150  0.96559970  0.43949594     0.12700
N591        N  0.05297509  0.90912685  0.48938103     0.61400
H592        H  0.10040408  0.87975296  0.50019886     0.08800
O593        O  0.13936778  0.78893769  0.46299792    -0.40000
O594        O  0.17436841  0.79710253  0.43270177    -0.39200
O595        O  0.18303357  0.91418579  0.53513680    -0.39200
O596        O  0.20728405  0.92579557  0.49659543    -0.36900
O597        O  0.04008183  0.92656808  0.50587252    -0.37800
O598        O  0.04432133  0.88328398  0.48834766    -0.34000
O599        O  0.17933623  0.91889417  0.43469793    -0.35400
O600        O  0.17501086  0.96187092  0.45348591    -0.39700
C601        C  0.15596845  0.85151724  0.57099055    -0.13300
C602        C  0.12863623  0.84815711  0.55815930     0.17000
C603        C  0.12369122  0.82368739  0.54051269     0.03300
C604        C  0.14662110  0.80510872  0.53372705    -0.11900
C605        C  0.17447415  0.81032696  0.54418825    -0.02900
C606        C  0.17862773  0.83248819  0.56458173     0.02600
C607        C  0.10667186  0.87134917  0.56267408     0.09400
N608        N  0.09609451  0.81806833  0.52804674     0.65800
H609        H  0.14305510  0.78744784  0.51880278     0.18700
N610        N  0.20589908  0.83616264  0.57844517     0.76200
H611        H  0.15989889  0.86946647  0.58553865     0.10200
C612        C  0.08018808  0.86653969  0.57663823     0.03900
C613        C  0.06355729  0.89037975  0.58535662    -0.04800
C614        C  0.07455872  0.91908992  0.58397945    -0.23200
C615        C  0.09621875  0.92340380  0.56226798     0.13100
C616        C  0.11320367  0.89966539  0.55396390    -0.12400
N617        N  0.07209571  0.83832608  0.58652364     0.64800
H618        H  0.04397636  0.88577666  0.59718329     0.12700
N619        N  0.10341069  0.95124440  0.55028827     0.61400
H620        H  0.13192770  0.90340812  0.54070888     0.08800
O621        O  0.21147806  0.82226554  0.60145830    -0.40000
O622        O  0.22553070  0.85037729  0.56604618    -0.39200
O623        O  0.08177461  0.79681492  0.53736320    -0.39200
O624        O  0.09018566  0.82829538  0.50327621    -0.36900
O625        O  0.12866800  0.96076276  0.55330835    -0.37800
O626        O  0.08934284  0.95995643  0.52848189    -0.34000
O627        O  0.08737619  0.82555069  0.60532333    -0.35400
O628        O  0.04712854  0.82903027  0.58130418    -0.39700
C629        C  0.81697029  0.22757163  0.48063263    -0.13300
C630        C  0.80549887  0.19944868  0.48129352     0.17000
C631        C  0.77604848  0.19588310  0.48837530     0.03300
C632        C  0.75968316  0.21973672  0.49681780    -0.11900
C633        C  0.77157568  0.24741853  0.49777515    -0.02900
C634        C  0.79995933  0.25162808  0.48800341     0.02600
C635        C  0.82352808  0.17476508  0.47130386     0.09400
N636        N  0.76237837  0.16821885  0.48829875     0.65800
H637        H  0.73774787  0.21642228  0.50405292     0.18700
N638        N  0.81121408  0.28016490  0.48431930     0.76200
H639        H  0.83890017  0.23090679  0.47344360     0.10200
C640        C  0.81639233  0.16051840  0.44558417     0.03900
C641        C  0.83264829  0.13701449  0.43664773    -0.04800
C642        C  0.85857308  0.12778048  0.45051085    -0.23200
C643        C  0.86616455  0.14317766  0.47630401     0.13100
C644        C  0.84846618  0.16605284  0.48647825    -0.12400
N645        N  0.79457570  0.17154335  0.42629565     0.64800
H646        H  0.82521206  0.12791281  0.41669149     0.12700
N647        N  0.89281990  0.13797900  0.49094702     0.61400
H648        H  0.85466138  0.17757927  0.50597498     0.08800
O649        O  0.80302244  0.29516890  0.46284906    -0.40000
O650        O  0.83314367  0.28791613  0.49841243    -0.39200
O651        O  0.75394176  0.15804863  0.51225486    -0.39200
O652        O  0.74940061  0.16034831  0.46558790    -0.36900
O653        O  0.91546409  0.14979666  0.48161932    -0.37800
O654        O  0.89262904  0.12738248  0.51628399    -0.34000
O655        O  0.79563855  0.19755847  0.41793905    -0.35400
O656        O  0.77808671  0.15428559  0.41315717    -0.39700
C657        C  0.81433168  0.21404700  0.56547513    -0.13300
C658        C  0.79869794  0.18886563  0.57199202     0.17000
C659        C  0.76856679  0.19116081  0.57493506     0.03300
C660        C  0.75457142  0.21732386  0.56773663    -0.11900
C661        C  0.77027986  0.24226954  0.56022784    -0.02900
C662        C  0.80069455  0.24097921  0.56110338     0.02600
C663        C  0.81544661  0.16343333  0.58290354     0.09400
N664        N  0.75216591  0.16782390  0.58685090     0.65800
H665        H  0.73129377  0.21819871  0.56793043     0.18700
N666        N  0.81790214  0.26680206  0.55877017     0.76200
H667        H  0.83760592  0.21293274  0.56572891     0.10200
C668        C  0.82585459  0.14066385  0.56537452     0.03900
C669        C  0.84963136  0.12388229  0.57488354    -0.04800
C670        C  0.86107872  0.12643246  0.60329701    -0.23200
C671        C  0.84617348  0.14653249  0.62201346     0.13100
C672        C  0.82527030  0.16524448  0.61116748    -0.12400
N673        N  0.80941628  0.13074017  0.54107592     0.64800
H674        H  0.85725931  0.10761344  0.56030967     0.12700
N675        N  0.85168790  0.14932419  0.65238560     0.61400
H676        H  0.81663433  0.18187009  0.62529386     0.08800
O677        O  0.80733171  0.29114291  0.56507386    -0.40000
O678        O  0.84470912  0.26495259  0.55484696    -0.39200
O679        O  0.75303903  0.16309612  0.61390211    -0.39200
O680        O  0.73259207  0.15628296  0.57186386    -0.36900
O681        O  0.83261061  0.14023474  0.66958967    -0.37800
O682        O  0.86663743  0.17039285  0.66062912    -0.34000
O683        O  0.82208841  0.11961863  0.51960639    -0.35400
O684        O  0.78361226  0.12376948  0.54563631    -0.39700
C685        C  0.79656752  0.96221837  0.32535427    -0.13300
C686        C  0.79588123  0.96495289  0.35577182     0.17000
C687        C  0.76940884  0.97041701  0.36962041     0.03300
C688        C  0.74491567  0.97583326  0.35278542    -0.11900
C689        C  0.74605331  0.97553264  0.32229694    -0.02900
C690        C  0.77171848  0.96672006  0.30856287     0.02600
C691        C  0.82260205  0.96040634  0.37279980     0.09400
N692        N  0.76685660  0.97001923  0.40064776     0.65800
H693        H  0.72498434  0.98156217  0.36352677     0.18700
N694        N  0.77293752  0.96234806  0.27780121     0.76200
H695        H  0.81652555  0.95660702  0.31462263     0.10200
C696        C  0.83432384  0.93269262  0.37510787     0.03900
C697        C  0.85799829  0.92798251  0.39286645    -0.04800
C698        C  0.87113144  0.95032606  0.40942810    -0.23200
C699        C  0.86052653  0.97889557  0.40512784     0.13100
C700        C  0.83626048  0.98350093  0.38708780    -0.12400
N701        N  0.82149306  0.90864066  0.36062645     0.64800
H702        H  0.86570971  0.90592494  0.39466036     0.12700
N703        N  0.87343743  0.00331818  0.41880921     0.61400
H704        H  0.82774079  0.00515648  0.38455489     0.08800
O705        O  0.76457574  0.93852007  0.26756550    -0.40000
O706        O  0.78850160  0.97851970  0.26228600    -0.39200
O707        O  0.75288036  0.98974968  0.41322043    -0.39200
O708        O  0.77251546  0.94702620  0.41440969    -0.36900
O709        O  0.86522068  0.01069620  0.44383185    -0.37800
O710        O  0.88702302  0.02131491  0.40341189    -0.34000
O711        O  0.83136823  0.90054247  0.33643980    -0.35400
O712        O  0.80451146  0.89233116  0.37440039    -0.39700
C713        C  0.78771360  0.04524853  0.34001841    -0.13300
C714        C  0.78199053  0.05445386  0.36861892     0.17000
C715        C  0.75266971  0.05622955  0.37717626     0.03300
C716        C  0.73083146  0.04583894  0.35842797    -0.11900
C717        C  0.73712447  0.03700249  0.32991554    -0.02900
C718        C  0.76576357  0.03950234  0.31993379     0.02600
C719        C  0.80738774  0.06578340  0.38585648     0.09400
N720        N  0.74431821  0.07043521  0.40339316     0.65800
H721        H  0.70879168  0.04503217  0.36596586     0.18700
N722        N  0.77284132  0.03666778  0.28950263     0.76200
H723        H  0.80978703  0.04416785  0.33264750     0.10200
C724        C  0.81407632  0.05959060  0.41529951     0.03900
C725        C  0.84004527  0.06967249  0.42776249    -0.04800
C726        C  0.85915157  0.08853783  0.41294012    -0.23200
C727        C  0.85096259  0.09557786  0.38326583     0.13100
C728        C  0.82662790  0.08327204  0.37064818    -0.12400
N729        N  0.79418948  0.04512728  0.43388030     0.64800
H730        H  0.84346575  0.06536419  0.45065123     0.12700
N731        N  0.86246289  0.11914594  0.36669941     0.61400
H732        H  0.82114982  0.09008472  0.34871352     0.08800
O733        O  0.75398112  0.04128467  0.27024706    -0.40000
O734        O  0.79877954  0.03467978  0.28165308    -0.39200
O735        O  0.75044777  0.09678606  0.40674868    -0.39200
O736        O  0.72586413  0.05889181  0.41985922    -0.36900
O737        O  0.85318500  0.14429913  0.37168561    -0.37800
O738        O  0.87220199  0.11391009  0.34162056    -0.34000
O739        O  0.79807731  0.01868510  0.43913195    -0.35400
O740        O  0.78044314  0.05998178  0.45217702    -0.39700
C741        C  0.01968089  0.81265637  0.37606998    -0.13300
C742        C  0.01772753  0.85200856  0.36381002     0.17000
C743        C  0.00838212  0.86091784  0.32485159     0.03300
C744        C  0.00542154  0.83085458  0.29711860    -0.11900
C745        C  0.01010364  0.79171016  0.30938602    -0.02900
C746        C  0.01509606  0.78269658  0.34891457     0.02600
C747        C  0.02467063  0.87492913  0.38512781     0.09400
N748        N  0.00412859  0.89001258  0.31560366     0.65800
H749        H  0.99848386  0.83573720  0.27520245     0.18700
N750        N  0.01305671  0.75356308  0.35877148     0.76200
H751        H  0.02273944  0.80723053  0.39871416     0.10200
C752        C  0.04613443  0.87046144  0.40607050     0.03900
C753        C  0.05422687  0.89286872  0.42437592    -0.04800
C754        C  0.04277954  0.92132307  0.42240830    -0.23200
C755        C  0.02012826  0.92507472  0.40145943     0.13100
C756        C  0.01109828  0.90186761  0.38393516    -0.12400
N757        N  0.06354897  0.84491603  0.40623735     0.64800
H758        H  0.07347394  0.88808331  0.43625445     0.12700
N759        N  0.00813688  0.95270287  0.39460144     0.61400
H760        H  0.99414833  0.90559360  0.36825244     0.08800
O761        O  0.03513260  0.74092375  0.36847872    -0.40000
O762        O  0.98863588  0.74231496  0.36242563    -0.39200
O763        O  0.02539835  0.90468460  0.30717344    -0.39200
O764        O  0.97903958  0.89854031  0.30959088    -0.36900
O765        O  0.98237279  0.95757920  0.40163087    -0.37800
O766        O  0.01877727  0.96692000  0.37375812    -0.34000
O767        O  0.08220822  0.84169871  0.38661200    -0.35400
O768        O  0.06555185  0.83010369  0.42929032    -0.39700
C769        C  0.92959543  0.90193567  0.36757383    -0.13300
C770        C  0.93870435  0.87659687  0.38188958     0.17000
C771        C  0.94586091  0.87959948  0.41204394     0.03300
C772        C  0.93796341  0.90503902  0.42712342    -0.11900
C773        C  0.91882528  0.92466026  0.41404284    -0.02900
C774        C  0.92101762  0.92648614  0.38316906     0.02600
C775        C  0.94317265  0.84969711  0.36342403     0.09400
N776        N  0.95758747  0.85636969  0.42887818     0.65800
H777        H  0.94102610  0.90573911  0.45051819     0.18700
N778        N  0.91503339  0.95288006  0.36764766     0.76200
H779        H  0.92921487  0.90268774  0.34403955     0.10200
C780        C  0.92475946  0.84283130  0.34047410     0.03900
C781        C  0.93217353  0.82054890  0.32175582    -0.04800
C782        C  0.95976979  0.80770727  0.32203394    -0.23200
C783        C  0.98470304  0.82076486  0.34117549     0.13100
C784        C  0.96771055  0.83251712  0.36643768    -0.12400
N785        N  0.89688504  0.85576215  0.33794200     0.64800
H786        H  0.91612923  0.81402304  0.30614248     0.12700
N787        N  0.03655790  0.82257001  0.33239556     0.61400
H788        H  0.97646760  0.83432892  0.38781614     0.08800
O789        O  0.90526393  0.95221741  0.34201606    -0.40000
O790        O  0.92281986  0.97677850  0.37817236    -0.39200
O791        O  0.98147453  0.85955442  0.44152264    -0.39200
O792        O  0.94218329  0.83473785  0.43495965    -0.36900
O793        O  0.05785701  0.80759015  0.34276389    -0.37800
O794        O  0.05207044  0.83851473  0.31524974    -0.34000
O795        O  0.88993926  0.86891348  0.31485657    -0.35400
O796        O  0.87787892  0.85017442  0.35670627    -0.39700
C797        C  0.61129506  0.05462436  0.16560575    -0.13300
C798        C  0.59418362  0.05218803  0.19062848     0.17000
C799        C  0.56411695  0.05617161  0.18706295     0.03300
C800        C  0.55335026  0.06751676  0.16045204    -0.11900
C801        C  0.57254228  0.07885410  0.13941525    -0.02900
C802        C  0.60068990  0.06684512  0.13983623     0.02600
C803        C  0.60972870  0.04708918  0.21904605     0.09400
N804        N  0.54465103  0.05255900  0.21079760     0.65800
H805        H  0.53072775  0.07297556  0.15902571     0.18700
N806        N  0.61880830  0.06687650  0.11465203     0.76200
H807        H  0.63361053  0.04806509  0.16651163     0.10200
C808        C  0.60438735  0.02365840  0.23823879     0.03900
C809        C  0.62474928  0.01664942  0.25994053    -0.04800
C810        C  0.65082737  0.03190503  0.26261280    -0.23200
C811        C  0.65448003  0.05707588  0.24585823     0.13100
C812        C  0.63406948  0.06440931  0.22468637    -0.12400
N813        N  0.57972832  0.00552204  0.23515075     0.64800
H814        H  0.62119586  0.99775610  0.27341125     0.12700
N815        N  0.68018661  0.07383167  0.24785060     0.61400
H816        H  0.63873330  0.08276144  0.21104019     0.08800
O817        O  0.61109571  0.05303302  0.09239111    -0.40000
O818        O  0.64459031  0.07512755  0.11671427    -0.39200
O819        O  0.54530711  0.07013052  0.23170334    -0.39200
O820        O  0.52328494  0.03599617  0.20801094    -0.36900
O821        O  0.70045294  0.06926327  0.23023854    -0.37800
O822        O  0.68010707  0.09677962  0.26259300    -0.34000
O823        O  0.58173232  0.98278600  0.22024317    -0.35400
O824        O  0.55999321  0.00722415  0.25387870    -0.39700
C825        C  0.61107753  0.94108748  0.87425765    -0.13300
C826        C  0.60993677  0.96922622  0.86399780     0.17000
C827        C  0.59004433  0.98860162  0.87688544     0.03300
C828        C  0.57571255  0.98046130  0.90292656    -0.11900
C829        C  0.57673896  0.95181582  0.91349348    -0.02900
C830        C  0.59440768  0.93182876  0.89751234     0.02600
C831        C  0.63209847  0.97741563  0.84199085     0.09400
N832        N  0.58114390  0.01446510  0.86200863     0.65800
H833        H  0.56139090  0.99577511  0.91314775     0.18700
N834        N  0.59548676  0.90146600  0.90344769     0.76200
H835        H  0.62498202  0.92558521  0.86354979     0.10200
C836        C  0.66161481  0.97592703  0.84954707     0.03900
C837        C  0.68258169  0.98277175  0.82903350    -0.04800
C838        C  0.67509298  0.99095579  0.80075888    -0.23200
C839        C  0.64617224  0.98908999  0.79194650     0.13100
C840        C  0.62485810  0.98214453  0.81255027    -0.12400
N841        N  0.67087431  0.96653719  0.87772994     0.64800
H842        H  0.70495593  0.98297353  0.83558835     0.12700
N843        N  0.63833361  0.99390837  0.76224017     0.61400
H844        H  0.60283548  0.97992756  0.80534470     0.08800
O845        O  0.61727208  0.89185570  0.91660683    -0.40000
O846        O  0.58359201  0.88490791  0.88534390    -0.39200
O847        O  0.57491316  0.01293901  0.83537964    -0.39200
O848        O  0.57069197  0.03512538  0.87631511    -0.36900
O849        O  0.63916751  0.97323797  0.74444144    -0.37800
O850        O  0.63196177  0.01896305  0.75337588    -0.34000
O851        O  0.67734988  0.94025500  0.88132495    -0.35400
O852        O  0.68100476  0.98487229  0.89514232    -0.39700
C853        C  0.59964884  0.88231210  0.98243127    -0.13300
C854        C  0.62756519  0.89311531  0.97782117     0.17000
C855        C  0.63019506  0.92279961  0.97106849     0.03300
C856        C  0.60539142  0.93906371  0.96479896    -0.11900
C857        C  0.57804483  0.92583589  0.96137807    -0.02900
C858        C  0.57481818  0.89896324  0.97653111     0.02600
C859        C  0.65224574  0.87201450  0.97854741     0.09400
N860        N  0.65750129  0.93593879  0.96593999     0.65800
H861        H  0.60838856  0.96128241  0.95787725     0.18700
N862        N  0.54764536  0.88877259  0.98776250     0.76200
H863        H  0.59731923  0.86057146  0.99089911     0.10200
C864        C  0.67700275  0.87481920  0.99647003     0.03900
C865        C  0.69552123  0.85107782  0.00028100    -0.04800
C866        C  0.69093998  0.82491214  0.98573076    -0.23200
C867        C  0.66906032  0.82353853  0.96465486     0.13100
C868        C  0.64945655  0.84653434  0.96196592    -0.12400
N869        N  0.68392956  0.90098421  0.01137008     0.64800
H870        H  0.71279943  0.85255193  0.01605198     0.12700
N871        N  0.66652448  0.79897285  0.94598481     0.61400
H872        H  0.63160003  0.84430356  0.94699326     0.08800
O873        O  0.54438959  0.86241846  0.99433604    -0.40000
O874        O  0.52749868  0.90609644  0.99311272    -0.39200
O875        O  0.67293669  0.92711578  0.94523608    -0.39200
O876        O  0.66334273  0.95979060  0.97781327    -0.36900
O877        O  0.64270773  0.78621771  0.94339776    -0.37800
O878        O  0.68615380  0.79396894  0.92775078    -0.34000
O879        O  0.70340982  0.91675187  0.00071537    -0.35400
O880        O  0.67962277  0.90229060  0.03840477    -0.39700
C881        C  0.51574742  0.91683362  0.87005753    -0.13300
C882        C  0.51714548  0.88662450  0.87177052     0.17000
C883        C  0.52333776  0.87436281  0.89923357     0.03300
C884        C  0.53378951  0.89151120  0.92196972    -0.11900
C885        C  0.53505309  0.92200157  0.91988709    -0.02900
C886        C  0.52164662  0.93446053  0.89433658     0.02600
C887        C  0.51349505  0.86778541  0.84529507     0.09400
N888        N  0.52092025  0.84394504  0.90443786     0.65800
H889        H  0.54276020  0.88004352  0.93794285     0.18700
N890        N  0.51729021  0.96517636  0.89071730     0.76200
H891        H  0.51098902  0.92718895  0.84967901     0.10200
C892        C  0.49230769  0.87234359  0.82347037     0.03900
C893        C  0.48521981  0.84960062  0.80473974    -0.04800
C894        C  0.49905135  0.82263837  0.80678654    -0.23200
C895        C  0.52446417  0.82076050  0.82327257     0.13100
C896        C  0.53159499  0.84345001  0.84209340    -0.12400
N897        N  0.47914156  0.89991243  0.81839106     0.64800
H898        H  0.46771953  0.85252849  0.78941797     0.12700
N899        N  0.54307621  0.79618061  0.82141997     0.61400
H900        H  0.55077423  0.84139178  0.85525282     0.08800
O901        O  0.52117335  0.97690018  0.86615715    -0.40000
O902        O  0.50518824  0.97974098  0.91033466    -0.39200
O903        O  0.54344410  0.82908711  0.90792659    -0.39200
O904        O  0.49756727  0.83441950  0.91445853    -0.36900
O905        O  0.53441714  0.77143073  0.82900110    -0.37800
O906        O  0.56819054  0.79916071  0.81149195    -0.34000
O907        O  0.48428123  0.91334251  0.79501328    -0.35400
O908        O  0.46009121  0.90943865  0.83527217    -0.39700
C909        C  0.43673813  0.88813964  0.89775178    -0.13300
C910        C  0.42268495  0.86150763  0.89801091     0.17000
C911        C  0.40357796  0.85580299  0.92075227     0.03300
C912        C  0.39482474  0.87838683  0.93913950    -0.11900
C913        C  0.40509823  0.90739080  0.93606153    -0.02900
C914        C  0.42836898  0.91089308  0.91612745     0.02600
C915        C  0.42753230  0.84059135  0.87384577     0.09400
N916        N  0.39034449  0.82800804  0.92357123     0.65800
H917        H  0.37661186  0.87292304  0.95223355     0.18700
N918        N  0.44341910  0.93761195  0.91331067     0.76200
H919        H  0.45421303  0.89144485  0.88281842     0.10200
C920        C  0.41561511  0.84529380  0.84591529     0.03900
C921        C  0.42289101  0.82700103  0.82270940    -0.04800
C922        C  0.44228789  0.80408220  0.82666264    -0.23200
C923        C  0.45241995  0.79800593  0.85513531     0.13100
C924        C  0.44466304  0.81608329  0.87838633    -0.12400
N925        N  0.39558755  0.86821715  0.84087026     0.64800
H926        H  0.41471162  0.83178643  0.80113249     0.12700
N927        N  0.47073554  0.77367410  0.86071690     0.61400
H928        H  0.45215564  0.81104801  0.90010303     0.08800
O929        O  0.44189415  0.95135247  0.88957563    -0.40000
O930        O  0.46500515  0.94153637  0.92938493    -0.39200
O931        O  0.39605806  0.81227843  0.94532346    -0.39200
O932        O  0.37057815  0.82062399  0.90631494    -0.36900
O933        O  0.49259619  0.77647254  0.87676076    -0.37800
O934        O  0.46255399  0.74864730  0.85369515    -0.34000
O935        O  0.40400746  0.89116548  0.82868482    -0.35400
O936        O  0.36906672  0.86260120  0.84124681    -0.39700
C937        C  0.61090678  0.89250029  0.05020836    -0.13300
C938        C  0.60401793  0.86472508  0.06032584     0.17000
C939        C  0.57808414  0.86114840  0.07543275     0.03300
C940        C  0.56294032  0.88562463  0.08494786    -0.11900
C941        C  0.57407592  0.91398247  0.08077865    -0.02900
C942        C  0.59496654  0.91697695  0.05849857     0.02600
C943        C  0.62467926  0.84042276  0.05561290     0.09400
N944        N  0.56792767  0.83299961  0.08303325     0.65800
H945        H  0.54395718  0.88210198  0.09809377     0.18700
N946        N  0.60282279  0.94472469  0.04700912     0.76200
H947        H  0.62901055  0.89522865  0.03605649     0.10200
C948        C  0.65158444  0.84012432  0.06986549     0.03900
C949        C  0.67311973  0.82081263  0.06087863    -0.04800
C950        C  0.66791747  0.80051022  0.03894312    -0.23200
C951        C  0.63957942  0.79792078  0.02763441     0.13100
C952        C  0.61857219  0.81861214  0.03545504    -0.12400
N953        N  0.65711662  0.85909406  0.09376945     0.64800
H954        H  0.69439669  0.82228090  0.07038702     0.12700
N955        N  0.63182777  0.77457318  0.00851478     0.61400
H956        H  0.59743774  0.81800131  0.02557505     0.08800
O957        O  0.58505885  0.95825868  0.03127789    -0.40000
O958        O  0.62895179  0.95206084  0.04627341    -0.39200
O959        O  0.54764668  0.82188861  0.06868138    -0.39200
O960        O  0.57592480  0.82136834  0.10657031    -0.36900
O961        O  0.64570839  0.75109780  0.00914196    -0.37800
O962        O  0.60865074  0.77564326  0.99420042    -0.34000
O963        O  0.68052734  0.87277711  0.09508936    -0.35400
O964        O  0.64106261  0.85814434  0.11587662    -0.39700
C965        C  0.61039777  0.98371961  0.15639104    -0.13300
C966        C  0.63609174  0.96836535  0.15700271     0.17000
C967        C  0.64220021  0.94941317  0.13430983     0.03300
C968        C  0.62125653  0.94397961  0.11304531    -0.11900
C969        C  0.59304522  0.95624896  0.11432450    -0.02900
C970        C  0.58901474  0.97840652  0.13559300     0.02600
C971        C  0.65371218  0.96956084  0.18382816     0.09400
N972        N  0.66806757  0.93267555  0.13459366     0.65800
H973        H  0.62638865  0.92615894  0.09914863     0.18700
N974        N  0.56184217  0.99226775  0.14002027     0.76200
H975        H  0.60581109  0.99819879  0.17403492     0.10200
C976        C  0.67560563  0.99023112  0.18734128     0.03900
C977        C  0.68689384  0.99525373  0.21510487    -0.04800
C978        C  0.67708820  0.97972510  0.23944723    -0.23200
C979        C  0.65706714  0.95727659  0.23550855     0.13100
C980        C  0.64515761  0.95272850  0.20784451    -0.12400
N981        N  0.68607430  0.00670529  0.16315550     0.64800
H982        H  0.70285858  0.01204498  0.21792948     0.12700
N983        N  0.64776432  0.93987425  0.25947861     0.61400
H984        H  0.62836256  0.93671561  0.20525461     0.08800
O985        O  0.55498438  0.01327773  0.12387486    -0.40000
O986        O  0.55030201  0.99043700  0.16479263    -0.39200
O987        O  0.67068212  0.91182277  0.15221282    -0.39200
O988        O  0.68647974  0.93616735  0.11476071    -0.36900
O989        O  0.62223772  0.94197258  0.26848748    -0.37800
O990        O  0.66274436  0.91837902  0.26714220    -0.34000
O991        O  0.68772267  0.03387901  0.16494230    -0.35400
O992        O  0.69911749  0.99395520  0.14285840    -0.39700
C993        C  0.67859128  0.06284652  0.86782750    -0.13300
C994        C  0.64928229  0.06790444  0.86164287     0.17000
C995        C  0.64018329  0.06605528  0.83216598     0.03300
C996        C  0.65951741  0.05693687  0.81072759    -0.11900
C997        C  0.68793429  0.04954839  0.81734194    -0.02900
C998        C  0.69775009  0.05326671  0.84610407     0.02600
C999        C  0.62933220  0.07938354  0.88456956     0.09400
N1000       N  0.61168237  0.07402217  0.82312730     0.65800
H1001       H  0.65221784  0.05547654  0.78844674     0.18700
N1002       N  0.72700389  0.04736082  0.85355514     0.76200
H1003       H  0.68678149  0.06660191  0.88953879     0.10200
C1004       C  0.61627939  0.06278680  0.90698066     0.03900
C1005       C  0.59214966  0.07429322  0.92204547    -0.04800
C1006       C  0.58391649  0.10382419  0.91991617    -0.23200
C1007       C  0.60022483  0.12066324  0.89922383     0.13100
C1008       C  0.62166558  0.10820732  0.88215519    -0.12400
N1009       N  0.62835976  0.03564811  0.91662483     0.64800
H1010       H  0.58181294  0.06013179  0.93714392     0.12700
N1011       N  0.59609399  0.15090124  0.89464074     0.61400
H1012       H  0.63291471  0.12170767  0.86652346     0.08800
O1013       O  0.73385108  0.02294506  0.86379114    -0.40000
O1014       O  0.74487917  0.06783145  0.85445645    -0.39200
O1015       O  0.60422267  0.10022799  0.82409900    -0.39200
O1016       O  0.59816109  0.05749649  0.80618659    -0.36900
O1017       O  0.60725683  0.16840324  0.91218112    -0.37800
O1018       O  0.59044099  0.15975503  0.86929037    -0.34000
O1019       O  0.61398761  0.01915676  0.93300403    -0.35400
O1020       O  0.65517816  0.03202942  0.91582797    -0.39700
C1021       C  0.42630202  0.19775816  0.83773734    -0.13300
C1022       C  0.44028657  0.17074792  0.83729058     0.17000
C1023       C  0.45081767  0.16116548  0.80979496     0.03300
C1024       C  0.45264140  0.18093015  0.78653086    -0.11900
C1025       C  0.44368902  0.20973168  0.78942194    -0.02900
C1026       C  0.42787144  0.21730234  0.81438320     0.02600
C1027       C  0.43958692  0.15262439  0.86468355     0.09400
N1028       N  0.45851280  0.13167870  0.80406118     0.65800
H1029       H  0.46307554  0.17425173  0.76658150     0.18700
N1030       N  0.41289750  0.24432139  0.81638634     0.76200
H1031       H  0.41294380  0.20343543  0.85601590     0.10200
C1032       C  0.44338234  0.16458448  0.89308118     0.03900
C1033       C  0.43414689  0.14900458  0.91773971    -0.04800
C1034       C  0.41773716  0.12391298  0.91444958    -0.23200
C1035       C  0.42229866  0.10853980  0.88816434     0.13100
C1036       C  0.43118013  0.12350844  0.86325035    -0.12400
N1037       N  0.45454283  0.19304900  0.89768351     0.64800
H1038       H  0.43664932  0.15849358  0.93909142     0.12700
N1039       N  0.41573914  0.07845122  0.88580593     0.61400
H1040       H  0.42842440  0.11279355  0.84266818     0.08800
O1041       O  0.39260750  0.24952759  0.79888427    -0.40000
O1042       O  0.41435950  0.25872864  0.83959988    -0.39200
O1043       O  0.44788981  0.11899466  0.78229398    -0.39200
O1044       O  0.47666228  0.11852520  0.81960182    -0.36900
O1045       O  0.42928764  0.06035317  0.90124222    -0.37800
O1046       O  0.40046063  0.06968477  0.86495314    -0.34000
O1047       O  0.43707792  0.21383083  0.89981509    -0.35400
O1048       O  0.47826739  0.19527365  0.91070483    -0.39700
C1049       C  0.50779726  0.21911311  0.84770705    -0.13300
C1050       C  0.51947180  0.19101296  0.84543349     0.17000
C1051       C  0.52541489  0.18047704  0.81707439     0.03300
C1052       C  0.51674935  0.19646473  0.79236879    -0.11900
C1053       C  0.50387580  0.22374067  0.79522973    -0.02900
C1054       C  0.50169575  0.23592514  0.82305751     0.02600
C1055       C  0.52587103  0.17366087  0.87266068     0.09400
N1056       N  0.54152884  0.15448648  0.81284136     0.65800
H1057       H  0.51941528  0.18725288  0.77091080     0.18700
N1058       N  0.49452457  0.26583147  0.82646933     0.76200
H1059       H  0.50294469  0.22829966  0.86868643     0.10200
C1060       C  0.53825138  0.18658863  0.89734448     0.03900
C1061       C  0.54564199  0.16976993  0.92155684    -0.04800
C1062       C  0.54275825  0.13912830  0.92239909    -0.23200
C1063       C  0.52601293  0.12722573  0.89958801     0.13100
C1064       C  0.51854580  0.14415038  0.87495924    -0.12400
N1065       N  0.54631813  0.21646269  0.89752024     0.64800
H1066       H  0.55782118  0.18173143  0.93683772     0.12700
N1067       N  0.51690543  0.09776715  0.90080797     0.61400
H1068       H  0.50715560  0.13398259  0.85748348     0.08800
O1069       O  0.46956873  0.27485241  0.82069831    -0.40000
O1070       O  0.51437222  0.28387098  0.83086354    -0.39200
O1071       O  0.53050219  0.13397444  0.79871532    -0.39200
O1072       O  0.56849654  0.15543221  0.81541445    -0.36900
O1073       O  0.49308900  0.09164630  0.91241246    -0.37800
O1074       O  0.52978712  0.07892647  0.88596525    -0.34000
O1075       O  0.53495067  0.23333274  0.91572130    -0.35400
O1076       O  0.56836844  0.22454008  0.88376846    -0.39700
C1077       C  0.43153810  0.83422263  0.19043031    -0.13300
C1078       C  0.43845518  0.86283792  0.19803326     0.17000
C1079       C  0.44885234  0.86819390  0.22643385     0.03300
C1080       C  0.45608930  0.84505270  0.24458430    -0.11900
C1081       C  0.45285109  0.81644424  0.23529377    -0.02900
C1082       C  0.43803530  0.81102413  0.20915761     0.02600
C1083       C  0.43060570  0.88698042  0.17800736     0.09400
N1084       N  0.45222409  0.89691918  0.23728064     0.65800
H1085       H  0.46601409  0.84943204  0.26545702     0.18700
N1086       N  0.42832443  0.78255133  0.20208694     0.76200
H1087       H  0.42011815  0.82996558  0.17037723     0.10200
C1088       C  0.43982277  0.88865769  0.14891490     0.03900
C1089       C  0.42867878  0.91022785  0.13029346    -0.04800
C1090       C  0.40633581  0.92939404  0.13895114    -0.23200
C1091       C  0.39805803  0.92730471  0.16921614     0.13100
C1092       C  0.41090151  0.90716386  0.18779497    -0.12400
N1093       N  0.45790603  0.86671470  0.13691985     0.64800
H1094       H  0.43441440  0.90847809  0.10764797     0.12700
N1095       N  0.37450506  0.94226645  0.18198873     0.61400
H1096       H  0.40283687  0.90539865  0.20985367     0.08800
O1097       O  0.43509945  0.77149029  0.17801671    -0.40000
O1098       O  0.40761972  0.77187075  0.21621755    -0.39200
O1099       O  0.43646558  0.90544683  0.25788144    -0.39200
O1100       O  0.47413604  0.91142144  0.23042687    -0.36900
O1101       O  0.35090846  0.92898551  0.18425614    -0.37800
O1102       O  0.38031477  0.96132001  0.20064117    -0.34000
O1103       O  0.44651544  0.84540421  0.12434055    -0.35400
O1104       O  0.48406335  0.87209529  0.13233860    -0.39700
C1105       C  0.52082347  0.84112914  0.18696843    -0.13300
C1106       C  0.53007296  0.86680700  0.19992706     0.17000
C1107       C  0.53432912  0.86769932  0.23025254     0.03300
C1108       C  0.52651300  0.84371100  0.24738358    -0.11900
C1109       C  0.51545189  0.81860061  0.23435718    -0.02900
C1110       C  0.51444026  0.81677237  0.20378763     0.02600
C1111       C  0.53987962  0.89010856  0.18037816     0.09400
N1112       N  0.54722001  0.89236687  0.24366653     0.65800
H1113       H  0.52791778  0.84509039  0.27086587     0.18700
N1114       N  0.50811830  0.78997104  0.18964181     0.76200
H1115       H  0.52003755  0.83958980  0.16346762     0.10200
C1116       C  0.56760138  0.88872833  0.16904055     0.03900
C1117       C  0.57465160  0.90551853  0.14509657    -0.04800
C1118       C  0.55478903  0.92453206  0.13113638    -0.23200
C1119       C  0.52727989  0.92756011  0.14454704     0.13100
C1120       C  0.52027777  0.91020426  0.16886431    -0.12400
N1121       N  0.58820669  0.86839402  0.18000278     0.64800
H1122       H  0.59562813  0.90162448  0.13590507     0.12700
N1123       N  0.50537273  0.94625116  0.13342356     0.61400
H1124       H  0.49870181  0.91115198  0.17764161     0.08800
O1125       O  0.52243275  0.76766448  0.19622722    -0.40000
O1126       O  0.49275872  0.78979382  0.16699407    -0.39200
O1127       O  0.53558850  0.91694720  0.24145494    -0.39200
O1128       O  0.57173632  0.89010122  0.25524837    -0.36900
O1129       O  0.48590449  0.93529293  0.11791149    -0.37800
O1130       O  0.49965826  0.96917422  0.14702428    -0.34000
O1131       O  0.58823626  0.84282070  0.17053646    -0.35400
O1132       O  0.60951416  0.87734460  0.19437517    -0.39700
C1133       C  0.18679403  0.99286586  0.67326552    -0.13300
C1134       C  0.16098574  0.98009935  0.68263007     0.17000
C1135       C  0.15899472  0.97084883  0.71200449     0.03300
C1136       C  0.18168978  0.97622524  0.73142504    -0.11900
C1137       C  0.20697712  0.98983176  0.72209259    -0.02900
C1138       C  0.21020055  0.99641636  0.69224184     0.02600
C1139       C  0.13721387  0.97535987  0.66107804     0.09400
N1140       N  0.13430387  0.95572169  0.72253754     0.65800
H1141       H  0.17890954  0.97119199  0.75430081     0.18700
N1142       N  0.23706467  0.00685544  0.68106766     0.76200
H1143       H  0.18890128  0.99986922  0.65087076     0.10200
C1144       C  0.14253218  0.96204483  0.63427191     0.03900
C1145       C  0.11963540  0.95395404  0.61638244    -0.04800
C1146       C  0.09033073  0.95933903  0.62311789    -0.23200
C1147       C  0.08553776  0.97542391  0.64944353     0.13100
C1148       C  0.10881405  0.98299605  0.66760506    -0.12400
N1149       N  0.17079618  0.95243595  0.62664743     0.64800
H1150       H  0.12600983  0.93880584  0.60036041     0.12700
N1151       N  0.05733438  0.97920263  0.66145884     0.61400
H1152       H  0.10434537  0.99386417  0.68784120     0.08800
O1153       O  0.26023862  0.99500664  0.68909620    -0.40000
O1154       O  0.23749079  0.02436345  0.65991159    -0.39200
O1155       O  0.13377100  0.92852222  0.72082257    -0.39200
O1156       O  0.11769470  0.96807200  0.74025789    -0.36900
O1157       O  0.04058725  0.99803167  0.65109095    -0.37800
O1158       O  0.05180196  0.96853996  0.68617041    -0.34000
O1159       O  0.18131606  0.93037973  0.63895692    -0.35400
O1160       O  0.18294271  0.96276157  0.60437804    -0.39700
C1161       C  0.18303694  0.07681654  0.68825625    -0.13300
C1162       C  0.15432261  0.06801696  0.69174829     0.17000
C1163       C  0.14646514  0.05345122  0.71753084     0.03300
C1164       C  0.16778860  0.04381109  0.73681900    -0.11900
C1165       C  0.19683056  0.05030661  0.73195650    -0.02900
C1166       C  0.20420474  0.06881042  0.70866883     0.02600
C1167       C  0.13208734  0.07727340  0.67036191     0.09400
N1168       N  0.11697752  0.05129883  0.72596158     0.65800
H1169       H  0.16169682  0.03131939  0.75583434     0.18700
N1170       N  0.23252801  0.08074717  0.70632774     0.76200
H1171       H  0.18892717  0.09019824  0.66979981     0.10200
C1172       C  0.12157086  0.10542179  0.67130645     0.03900
C1173       C  0.09866268  0.11341561  0.65366924    -0.04800
C1174       C  0.08518536  0.09437397  0.63351426    -0.23200
C1175       C  0.09731892  0.06605738  0.63130668     0.13100
C1176       C  0.12036043  0.05793577  0.64995878    -0.12400
N1177       N  0.13357949  0.12621304  0.69077131     0.64800
H1178       H  0.09063441  0.13501775  0.65695174     0.12700
N1179       N  0.08770252  0.04552782  0.61019753     0.61400
H1180       H  0.12922586  0.03636597  0.64849419     0.08800
O1181       O  0.25437557  0.06454448  0.70620776    -0.40000
O1182       O  0.23583455  0.10777255  0.70800609    -0.39200
O1183       O  0.10628719  0.02688401  0.73157842    -0.39200
O1184       O  0.10449798  0.07363336  0.73530044    -0.36900
O1185       O  0.10576377  0.03385125  0.59346154    -0.37800
O1186       O  0.06347581  0.03379822  0.61317219    -0.34000
O1187       O  0.15324954  0.14281801  0.68193048    -0.35400
O1188       O  0.12115552  0.13150560  0.71454112    -0.39700
C1189       C  0.33413999  0.10741147  0.87706155    -0.13300
C1190       C  0.32332377  0.08000372  0.88161891     0.17000
C1191       C  0.33367372  0.06362846  0.90520768     0.03300
C1192       C  0.35719503  0.07364306  0.92172888    -0.11900
C1193       C  0.36898001  0.10153983  0.91717630    -0.02900
C1194       C  0.35559967  0.11878704  0.89456447     0.02600
C1195       C  0.30475287  0.06827548  0.85836542     0.09400
N1196       N  0.31960662  0.03756392  0.91361859     0.65800
H1197       H  0.36479878  0.05964110  0.93874449     0.18700
N1198       N  0.36277266  0.14825368  0.88838106     0.76200
H1199       H  0.32577909  0.12041000  0.85922712     0.10200
C1200       C  0.27481106  0.06494702  0.86147786     0.03900
C1201       C  0.25835234  0.05580305  0.83758233    -0.04800
C1202       C  0.27125469  0.05096605  0.81043342    -0.23200
C1203       C  0.30070004  0.05685544  0.80676809     0.13100
C1204       C  0.31721297  0.06477449  0.83080552    -0.12400
N1205       N  0.26072643  0.07220100  0.88809683     0.64800
H1206       H  0.23551915  0.05205194  0.84026006     0.12700
N1207       N  0.31380027  0.05578415  0.77859143     0.61400
H1208       H  0.33984322  0.06943427  0.82774080     0.08800
O1209       O  0.37812052  0.15320558  0.86637880    -0.40000
O1210       O  0.34420823  0.16710885  0.89470050    -0.39200
O1211       O  0.29873977  0.03882346  0.93106590    -0.39200
O1212       O  0.33227311  0.01382698  0.91010410    -0.36900
O1213       O  0.30381338  0.07125276  0.75825652    -0.37800
O1214       O  0.33801295  0.04385936  0.77542591    -0.34000
O1215       O  0.25904028  0.09835628  0.89564109    -0.35400
O1216       O  0.24564488  0.05352666  0.90108007    -0.39700
C1217       C  0.29756897  0.98025686  0.85181092    -0.13300
C1218       C  0.32592594  0.97570118  0.84251628     0.17000
C1219       C  0.33199413  0.97694901  0.81248619     0.03300
C1220       C  0.31012497  0.98496666  0.79268239    -0.11900
C1221       C  0.28180040  0.98993472  0.80227501    -0.02900
C1222       C  0.27539511  0.98588042  0.83201299     0.02600
C1223       C  0.34659320  0.96450014  0.86464764     0.09400
N1224       N  0.35985529  0.96932199  0.80187491     0.65800
H1225       H  0.31526851  0.98761171  0.76984868     0.18700
N1226       N  0.24628364  0.98626521  0.84219674     0.76200
H1227       H  0.29234524  0.97766772  0.87465327     0.10200
C1228       C  0.36975549  0.98019989  0.87677150     0.03900
C1229       C  0.38199445  0.97096369  0.90358409    -0.04800
C1230       C  0.37302875  0.94522476  0.91765889    -0.23200
C1231       C  0.35234811  0.92787577  0.90212956     0.13100
C1232       C  0.33955874  0.93804289  0.87676678    -0.12400
N1233       N  0.38091872  0.00550706  0.86269157     0.64800
H1234       H  0.39870532  0.98404652  0.91323266     0.12700
N1235       N  0.34289428  0.89982023  0.91114880     0.61400
H1236       H  0.32275390  0.92517982  0.86676216     0.08800
O1237       O  0.24027300  0.99816421  0.86609367    -0.40000
O1238       O  0.22816896  0.96945816  0.83080383    -0.39200
O1239       O  0.36862854  0.94355794  0.80399098    -0.39200
O1240       O  0.37531661  0.98802338  0.78941298    -0.36900
O1241       O  0.31796189  0.89773242  0.92163988    -0.37800
O1242       O  0.35163928  0.87872678  0.89633350    -0.34000
O1243       O  0.40770228  0.00983174  0.86226092    -0.35400
O1244       O  0.36448696  0.02276328  0.84935355    -0.39700
C1245       C  0.01126255  0.64608773  0.16019649    -0.13300
C1246       C  0.02748517  0.67013380  0.16893014     0.17000
C1247       C  0.05421268  0.67545286  0.15616759     0.03300
C1248       C  0.06420185  0.65669040  0.13511669    -0.11900
C1249       C  0.04804243  0.63250027  0.12514517    -0.02900
C1250       C  0.02091933  0.62727970  0.13849695     0.02600
C1251       C  0.01683324  0.68817319  0.19280979     0.09400
N1252       N  0.07292007  0.69781485  0.16641843     0.65800
H1253       H  0.08600247  0.66012135  0.12761093     0.18700
N1254       N  0.00392603  0.60214075  0.13269332     0.76200
H1255       H  0.99116262  0.64130126  0.17108280     0.10200
C1256       C  0.01190691  0.71815059  0.18926184     0.03900
C1257       C  0.99863979  0.73338946  0.21158793    -0.04800
C1258       C  0.99137399  0.71960434  0.23769290    -0.23200
C1259       C  0.99856648  0.69039058  0.24224260     0.13100
C1260       C  0.01042994  0.67467190  0.21938883    -0.12400
N1261       N  0.01848906  0.73303930  0.16269664     0.64800
H1262       H  0.99401604  0.75620864  0.20863978     0.12700
N1263       N  0.99523147  0.67686618  0.27011224     0.61400
H1264       H  0.01536638  0.65195304  0.22255103     0.08800
O1265       O  0.97827045  0.60514068  0.12430856    -0.40000
O1266       O  0.01232463  0.57754911  0.14113649    -0.39200
O1267       O  0.08229024  0.69679435  0.19218348    -0.39200
O1268       O  0.08452924  0.71486104  0.14841317    -0.36900
O1269       O  0.98283831  0.65267399  0.27196696    -0.37800
O1270       O  0.01007551  0.68563038  0.29131160    -0.34000
O1271       O  0.00377968  0.72824548  0.14015476    -0.35400
O1272       O  0.03461776  0.75495315  0.16334900    -0.39700
C1273       C  0.78700037  0.70947348  0.07058633    -0.13300
C1274       C  0.78830950  0.68325199  0.05521792     0.17000
C1275       C  0.76728978  0.67779406  0.03367892     0.03300
C1276       C  0.74730005  0.69939621  0.02627721    -0.11900
C1277       C  0.74767064  0.72646339  0.03993804    -0.02900
C1278       C  0.76640875  0.73069493  0.06363186     0.02600
C1279       C  0.81096348  0.66162614  0.06314582     0.09400
N1280       N  0.76670944  0.65104609  0.01817102     0.65800
H1281       H  0.73256781  0.69572475  0.00839290     0.18700
N1282       N  0.76432953  0.75612430  0.08109350     0.76200
H1283       H  0.80186269  0.71331706  0.08832477     0.10200
C1284       C  0.80401253  0.63466453  0.07519445     0.03900
C1285       C  0.82575630  0.61693581  0.08666135    -0.04800
C1286       C  0.85547179  0.62406828  0.08587209    -0.23200
C1287       C  0.86207752  0.65140239  0.07221803     0.13100
C1288       C  0.83994317  0.66939453  0.06150313    -0.12400
N1289       N  0.77465903  0.62668155  0.08007036     0.64800
H1290       H  0.81761275  0.60036982  0.10042317     0.12700
N1291       N  0.88991840  0.66447458  0.07445974     0.61400
H1292       H  0.84546538  0.69061480  0.05308669     0.08800
O1293       O  0.74469627  0.75781022  0.09993714    -0.40000
O1294       O  0.78487313  0.77387637  0.08182092    -0.39200
O1295       O  0.74331365  0.63761270  0.01503440    -0.39200
O1296       O  0.78884719  0.64233472  0.00506706    -0.36900
O1297       O  0.90924828  0.65829444  0.05638021    -0.37800
O1298       O  0.89257985  0.68727810  0.08924173    -0.34000
O1299       O  0.76566932  0.60248702  0.07132938    -0.35400
O1300       O  0.75954456  0.64109009  0.09760516    -0.39700
C1301       C  0.87652381  0.66478060  0.16822206    -0.13300
C1302       C  0.90475465  0.67399767  0.17068901     0.17000
C1303       C  0.92475931  0.66421888  0.14939319     0.03300
C1304       C  0.91682325  0.64219446  0.12947279    -0.11900
C1305       C  0.88832039  0.63232904  0.12706609    -0.02900
C1306       C  0.86778371  0.64603088  0.14612518     0.02600
C1307       C  0.91190419  0.69389696  0.19561570     0.09400
N1308       N  0.95244869  0.67742829  0.14628914     0.65800
H1309       H  0.93286123  0.63414393  0.11482575     0.18700
N1310       N  0.83746269  0.64207700  0.14330504     0.76200
H1311       H  0.86054332  0.67321576  0.18311916     0.10200
C1312       C  0.91436585  0.72409950  0.19198152     0.03900
C1313       C  0.92430141  0.74146008  0.21512348    -0.04800
C1314       C  0.92965708  0.72963796  0.24294805    -0.23200
C1315       C  0.92262559  0.70008285  0.24776894     0.13100
C1316       C  0.91487613  0.68247474  0.22383848    -0.12400
N1317       N  0.90690784  0.73727463  0.16482643     0.64800
H1318       H  0.92902290  0.76404761  0.21102884     0.12700
N1319       N  0.92333224  0.68771956  0.27664531     0.61400
H1320       H  0.91104855  0.65959592  0.22713970     0.08800
O1321       O  0.82501049  0.62487610  0.16044738    -0.40000
O1322       O  0.82294127  0.66255402  0.13248427    -0.39200
O1323       O  0.96228695  0.69327707  0.16604508    -0.39200
O1324       O  0.96574975  0.67605728  0.12239925    -0.36900
O1325       O  0.92201340  0.70380467  0.29872394    -0.37800
O1326       O  0.92100905  0.66073001  0.28022493    -0.34000
O1327       O  0.88077657  0.74039560  0.15806444    -0.35400
O1328       O  0.92616651  0.74314145  0.14643995    -0.39700
C1329       C  0.86030529  0.46813338  0.86392767    -0.13300
C1330       C  0.83451213  0.48236019  0.87092704     0.17000
C1331       C  0.83215213  0.49260771  0.90030174     0.03300
C1332       C  0.85195758  0.48285459  0.92174557    -0.11900
C1333       C  0.87325938  0.46266938  0.91461488    -0.02900
C1334       C  0.88156933  0.46319769  0.88497677     0.02600
C1335       C  0.81164873  0.48628212  0.84749608     0.09400
N1336       N  0.80900057  0.51055599  0.90993852     0.65800
H1337       H  0.84790754  0.48781449  0.94435319     0.18700
N1338       N  0.91088088  0.45814378  0.87633759     0.76200
H1339       H  0.86440648  0.46062908  0.84230064     0.10200
C1340       C  0.81816357  0.49295277  0.81778872     0.03900
C1341       C  0.79598397  0.49750232  0.79762460    -0.04800
C1342       C  0.76710837  0.49600429  0.80561681    -0.23200
C1343       C  0.76031566  0.48608256  0.83370696     0.13100
C1344       C  0.78243458  0.48094002  0.85406600    -0.12400
N1345       N  0.84684152  0.49582982  0.80701757     0.64800
H1346       H  0.80142618  0.50423307  0.77570650     0.12700
N1347       N  0.73106998  0.48154499  0.84199945     0.61400
H1348       H  0.77641548  0.47216076  0.87486647     0.08800
O1349       O  0.91693685  0.45387969  0.84994945    -0.40000
O1350       O  0.93105585  0.46364811  0.89385416    -0.39200
O1351       O  0.78567079  0.49868707  0.91709118    -0.39200
O1352       O  0.81527449  0.53409568  0.92210512    -0.36900
O1353       O  0.71988157  0.45696191  0.83852369    -0.37800
O1354       O  0.71823240  0.50014918  0.85721393    -0.34000
O1355       O  0.85739217  0.47490239  0.79306010    -0.35400
O1356       O  0.85590821  0.52084268  0.80117963    -0.39700
C1357       C  0.00949583  0.65322323  0.88862958    -0.13300
C1358       C  0.02080464  0.68123308  0.89209574     0.17000
C1359       C  0.03809408  0.68667356  0.91647841     0.03300
C1360       C  0.04713630  0.66372204  0.93411643    -0.11900
C1361       C  0.04171645  0.63444791  0.92651100    -0.02900
C1362       C  0.01839242  0.63011658  0.90683563     0.02600
C1363       C  0.01564759  0.70439301  0.86989249     0.09400
N1364       N  0.04914651  0.71498268  0.92196692     0.65800
H1365       H  0.06083178  0.66923531  0.95225865     0.18700
N1366       N  0.00603451  0.60208086  0.90256328     0.76200
H1367       H  0.99440497  0.64909725  0.87117261     0.10200
C1368       C  0.02632713  0.70164826  0.84131955     0.03900
C1369       C  0.02184492  0.72387145  0.82078184    -0.04800
C1370       C  0.00694599  0.74917090  0.82824125    -0.23200
C1371       C  0.99897300  0.75314893  0.85763789     0.13100
C1372       C  0.00255194  0.73054464  0.87790486    -0.12400
N1373       N  0.04192727  0.67638715  0.83296308     0.64800
H1374       H  0.02929484  0.72101574  0.79869916     0.12700
N1375       N  0.98793490  0.78038062  0.86725223     0.61400
H1376       H  0.99553611  0.73359509  0.90014897     0.08800
O1377       O  0.00754851  0.59034674  0.87787612    -0.40000
O1378       O  0.98729430  0.59318318  0.92026845    -0.39200
O1379       O  0.04384142  0.72729905  0.94580885    -0.39200
O1380       O  0.06648442  0.72645851  0.90425411    -0.36900
O1381       O  0.96495321  0.78137009  0.88176962    -0.37800
O1382       O  0.00411014  0.80226552  0.86663699    -0.34000
O1383       O  0.03085135  0.65868924  0.81542805    -0.35400
O1384       O  0.06591259  0.67075730  0.84456921    -0.39700
C1385       C  0.84637306  0.66858270  0.98176653    -0.13300
C1386       C  0.83441099  0.68611046  0.95964049     0.17000
C1387       C  0.84417534  0.68210410  0.93097997     0.03300
C1388       C  0.86278043  0.65901804  0.92491957    -0.11900
C1389       C  0.87418031  0.64004020  0.94665769    -0.02900
C1390       C  0.86611285  0.64598274  0.97580949     0.02600
C1391       C  0.81138592  0.70783045  0.96686638     0.09400
N1392       N  0.83563404  0.70122038  0.90768647     0.65800
H1393       H  0.86773203  0.65531244  0.90229633     0.18700
N1394       N  0.87593433  0.62833745  0.99936247     0.76200
H1395       H  0.83947945  0.67189620  0.00386893     0.10200
C1396       C  0.78366075  0.70742142  0.95383553     0.03900
C1397       C  0.76247593  0.72720116  0.96268768    -0.04800
C1398       C  0.76813238  0.74800693  0.98396202    -0.23200
C1399       C  0.79645894  0.75033578  0.99495653     0.13100
C1400       C  0.81743232  0.72976158  0.98701000    -0.12400
N1401       N  0.77584693  0.68620845  0.93274399     0.64800
H1402       H  0.74086970  0.72517154  0.95407635     0.12700
N1403       N  0.80434299  0.77383294  0.01357332     0.61400
H1404       H  0.83886218  0.73121811  0.99614682     0.08800
O1405       O  0.85815054  0.61443428  0.01466819    -0.40000
O1406       O  0.90142959  0.63093844  0.00817442    -0.39200
O1407       O  0.83177241  0.72783496  0.91235083    -0.39200
O1408       O  0.83437661  0.69209477  0.88185288    -0.36900
O1409       O  0.82305291  0.77013571  0.03316079    -0.37800
O1410       O  0.79665871  0.79924832  0.00705983    -0.34000
O1411       O  0.76056261  0.66515791  0.94082989    -0.35400
O1412       O  0.77519832  0.69353709  0.90627170    -0.39700
C1413       C  0.93979763  0.66905513  0.89841223    -0.13300
C1414       C  0.93127882  0.66646349  0.86935559     0.17000
C1415       C  0.91778285  0.64079479  0.86087306     0.03300
C1416       C  0.90931853  0.62060534  0.88189511    -0.11900
C1417       C  0.91246408  0.62540959  0.91233179    -0.02900
C1418       C  0.93079991  0.64924891  0.91983507     0.02600
C1419       C  0.93577352  0.69105676  0.84870909     0.09400
N1420       N  0.90973039  0.63595608  0.83124485     0.65800
H1421       H  0.89760743  0.60317760  0.87287798     0.18700
N1422       N  0.93774843  0.65627835  0.94928319     0.76200
H1423       H  0.95245687  0.68757046  0.90493800     0.10200
C1424       C  0.92572448  0.71924234  0.85528397     0.03900
C1425       C  0.93235619  0.74244733  0.83688284    -0.04800
C1426       C  0.94820179  0.73807886  0.81158592    -0.23200
C1427       C  0.95440700  0.70970577  0.80266252     0.13100
C1428       C  0.94934922  0.68651216  0.82173473    -0.12400
N1429       N  0.90788229  0.72470208  0.87992297     0.64800
H1430       H  0.92627198  0.76418628  0.84307842     0.12700
N1431       N  0.96428040  0.70431347  0.77372124     0.61400
H1432       H  0.95618294  0.66505089  0.81547242     0.08800
O1433       O  0.96288637  0.65094201  0.95820148    -0.40000
O1434       O  0.92371261  0.67608025  0.96167281    -0.39200
O1435       O  0.92323814  0.61739932  0.81653999    -0.39200
O1436       O  0.88568764  0.64497515  0.82223223    -0.36900
O1437       O  0.94652135  0.70435024  0.75294722    -0.37800
O1438       O  0.99046592  0.69940198  0.76872194    -0.34000
O1439       O  0.91943073  0.73121910  0.90385270    -0.35400
O1440       O  0.88211841  0.73200535  0.87547277    -0.39700
C1441       C  0.81911549  0.59533160  0.89836354    -0.13300
C1442       C  0.82752149  0.57752043  0.87547673     0.17000
C1443       C  0.85542457  0.56441629  0.87773995     0.03300
C1444       C  0.87326878  0.57016933  0.90211058    -0.11900
C1445       C  0.86636166  0.59267045  0.92119029    -0.02900
C1446       C  0.83663962  0.59960775  0.92255633     0.02600
C1447       C  0.80571741  0.57166503  0.85167316     0.09400
N1448       N  0.86856111  0.54964216  0.85399827     0.65800
H1449       H  0.89506084  0.56181753  0.90223135     0.18700
N1450       N  0.82313334  0.60743001  0.94929825     0.76200
H1451       H  0.79849204  0.60579543  0.89803028     0.10200
C1452       C  0.77628143  0.56475046  0.85772035     0.03900
C1453       C  0.75748850  0.55793788  0.83500803    -0.04800
C1454       C  0.76632940  0.55813731  0.80609447    -0.23200
C1455       C  0.79403216  0.56840090  0.79948891     0.13100
C1456       C  0.81333682  0.57512097  0.82215016    -0.12400
N1457       N  0.76422112  0.56467267  0.88638484     0.64800
H1458       H  0.73572720  0.55135306  0.84013692     0.12700
N1459       N  0.80264691  0.57262568  0.76997021     0.61400
H1460       H  0.83395514  0.58401956  0.81637631     0.08800
O1461       O  0.82589888  0.59088201  0.97101382    -0.40000
O1462       O  0.80296253  0.62564819  0.94911269    -0.39200
O1463       O  0.87785171  0.56477517  0.83314522    -0.39200
O1464       O  0.88126297  0.52609553  0.85924710    -0.36900
O1465       O  0.82081500  0.55580891  0.75868908    -0.37800
O1466       O  0.79682415  0.59627051  0.75747271    -0.34000
O1467       O  0.75192087  0.58744401  0.89493224    -0.35400
O1468       O  0.75503615  0.54100849  0.89634679    -0.39700
C1469       C  0.16389812  0.57558034  0.84918889    -0.13300
C1470       C  0.13602643  0.56507998  0.84349748     0.17000
C1471       C  0.13154729  0.54957659  0.81735956     0.03300
C1472       C  0.15492846  0.54325358  0.79899144    -0.11900
C1473       C  0.18299264  0.55209452  0.80573391    -0.02900
C1474       C  0.18710567  0.56970578  0.83038032     0.02600
C1475       C  0.11249397  0.57096602  0.86523093     0.09400
N1476       N  0.10376507  0.53900202  0.80947852     0.65800
H1477       H  0.15133644  0.53019112  0.77986494     0.18700
N1478       N  0.21479434  0.58152650  0.83669398     0.76200
H1479       H  0.16767519  0.58843208  0.86847280     0.10200
C1480       C  0.08987443  0.59024214  0.85941388     0.03900
C1481       C  0.07150165  0.59921732  0.88199092    -0.04800
C1482       C  0.07474444  0.59020270  0.91161552    -0.23200
C1483       C  0.09660039  0.56879258  0.91640845     0.13100
C1484       C  0.11455545  0.55962746  0.89346627    -0.12400
N1485       N  0.08694003  0.60357181  0.83138041     0.64800
H1486       H  0.05780278  0.61685352  0.87594581     0.12700
N1487       N  0.10387661  0.55859765  0.94489536     0.61400
H1488       H  0.13139848  0.54436485  0.89827054     0.08800
O1489       O  0.22281156  0.60419105  0.82365858    -0.40000
O1490       O  0.22853080  0.57293638  0.85878741    -0.39200
O1491       O  0.08840151  0.55410438  0.79263362    -0.39200
O1492       O  0.09912991  0.51216285  0.81086312    -0.36900
O1493       O  0.09879530  0.53251339  0.95120528    -0.37800
O1494       O  0.12305028  0.57172290  0.95908074    -0.34000
O1495       O  0.06267522  0.60420645  0.81907254    -0.35400
O1496       O  0.10736082  0.61820946  0.82088334    -0.39700
C1497       C  0.15414854  0.47474382  0.84048397    -0.13300
C1498       C  0.15778221  0.48655804  0.86847784     0.17000
C1499       C  0.18424338  0.50076130  0.87450934     0.03300
C1500       C  0.20480155  0.50447733  0.85229354    -0.11900
C1501       C  0.19989886  0.49481313  0.82382556    -0.02900
C1502       C  0.17496672  0.47834925  0.81849926     0.02600
C1503       C  0.13372428  0.48279975  0.89030611     0.09400
N1504       N  0.19035759  0.51304061  0.90235246     0.65800
H1505       H  0.22396345  0.51693397  0.85680999     0.18700
N1506       N  0.17028415  0.46556047  0.79065775     0.76200
H1507       H  0.13480952  0.46266958  0.83554725     0.10200
C1508       C  0.13796934  0.47073462  0.91822361     0.03900
C1509       C  0.11407029  0.46366424  0.93542593    -0.04800
C1510       C  0.08564634  0.46312132  0.92377982    -0.23200
C1511       C  0.08130879  0.48246558  0.90012990     0.13100
C1512       C  0.10522727  0.49043713  0.88267623    -0.12400
N1513       N  0.16573694  0.46153555  0.92804871     0.64800
H1514       H  0.11845638  0.45425684  0.95655824     0.12700
N1515       N  0.05401174  0.49633348  0.89526211     0.61400
H1516       H  0.10170726  0.50330954  0.86341041     0.08800
O1517       O  0.15013286  0.47461335  0.77462754    -0.40000
O1518       O  0.18217200  0.44172641  0.78488971    -0.39200
O1519       O  0.18169320  0.53828980  0.90774804    -0.39200
O1520       O  0.21138358  0.50322924  0.91671769    -0.36900
O1521       O  0.03898366  0.50427172  0.91662055    -0.37800
O1522       O  0.04706478  0.50481498  0.87005851    -0.34000
O1523       O  0.17918333  0.44247639  0.91394315    -0.35400
O1524       O  0.17376102  0.46746476  0.95358465    -0.39700
C1525       C  0.82578317  0.55148037  0.14060835    -0.13300
C1526       C  0.82938877  0.55947672  0.16982635     0.17000
C1527       C  0.85588991  0.57205261  0.17762170     0.03300
C1528       C  0.87460203  0.58176770  0.15577916    -0.11900
C1529       C  0.86605759  0.58254461  0.12605966    -0.02900
C1530       C  0.84475372  0.56130566  0.11877708     0.02600
C1531       C  0.80548792  0.55493688  0.19132613     0.09400
N1532       N  0.86261616  0.57871427  0.20718891     0.65800
H1533       H  0.89414116  0.59235843  0.16279241     0.18700
N1534       N  0.84101715  0.54995586  0.09000392     0.76200
H1535       H  0.80783372  0.53786134  0.13458459     0.10200
C1536       C  0.77723730  0.56511761  0.18565787     0.03900
C1537       C  0.75502923  0.55981902  0.20566548    -0.04800
C1538       C  0.76020427  0.54493224  0.23174300    -0.23200
C1539       C  0.78876908  0.53719490  0.23875079     0.13100
C1540       C  0.81086244  0.54133134  0.21824148    -0.12400
N1541       N  0.77062746  0.58111118  0.15979439     0.64800
H1542       H  0.73326993  0.56621374  0.20018017     0.12700
N1543       N  0.79556724  0.52530687  0.26672766     0.61400
H1544       H  0.83230178  0.53375500  0.22341577     0.08800
O1545       O  0.81771712  0.55461620  0.07666556    -0.40000
O1546       O  0.85478443  0.52735440  0.08358472    -0.39200
O1547       O  0.88324881  0.56586572  0.21957850    -0.39200
O1548       O  0.85230248  0.60126013  0.21851889    -0.36900
O1549       O  0.79213559  0.54070150  0.28905957    -0.37800
O1550       O  0.81001839  0.50226879  0.26870181    -0.34000
O1551       O  0.76072367  0.56795472  0.13799189    -0.35400
O1552       O  0.76717845  0.60811756  0.16147761    -0.39700
C1553       C  0.75805476  0.48691847  0.16299845    -0.13300
C1554       C  0.78436585  0.47379341  0.17055613     0.17000
C1555       C  0.78864547  0.46565628  0.19999443     0.03300
C1556       C  0.76804872  0.47259189  0.22124644    -0.11900
C1557       C  0.74288021  0.48774159  0.21409228    -0.02900
C1558       C  0.73721224  0.49343524  0.18435106     0.02600
C1559       C  0.80741888  0.46880323  0.14810988     0.09400
N1560       N  0.81399898  0.45045402  0.20879838     0.65800
H1561       H  0.77245306  0.46742361  0.24381747     0.18700
N1562       N  0.71025221  0.50551157  0.17552708     0.76200
H1563       H  0.75384021  0.49261181  0.14051365     0.10200
C1564       C  0.80299152  0.45170085  0.12330533     0.03900
C1565       C  0.82661666  0.44233008  0.10661354    -0.04800
C1566       C  0.85557599  0.45020150  0.11311735    -0.23200
C1567       C  0.85866872  0.47166562  0.13534429     0.13100
C1568       C  0.83503744  0.47991109  0.15262396    -0.12400
N1569       N  0.77507369  0.44064151  0.11660673     0.64800
H1570       H  0.82111435  0.42616847  0.09114554     0.12700
N1571       N  0.88615489  0.48328854  0.14303950     0.61400
H1572       H  0.83858374  0.49461451  0.17054564     0.08800
O1573       O  0.70955747  0.52957190  0.16249944    -0.40000
O1574       O  0.68833164  0.48947108  0.17495168    -0.39200
O1575       O  0.83481372  0.46433614  0.21943390    -0.39200
O1576       O  0.81291843  0.42340646  0.21231326    -0.36900
O1577       O  0.89628935  0.50386631  0.12817726    -0.37800
O1578       O  0.89539622  0.47954836  0.16862012    -0.34000
O1579       O  0.76132175  0.45111454  0.09534121    -0.35400
O1580       O  0.76719182  0.41683118  0.12746055    -0.39700
C1581       C  0.02967316  0.13233144  0.68902914    -0.13300
C1582       C  0.01817857  0.15922223  0.68069386     0.17000
C1583       C  0.01037783  0.16305962  0.65079119     0.03300
C1584       C  0.01757131  0.14143731  0.63046477    -0.11900
C1585       C  0.03655839  0.11911837  0.63846374    -0.02900
C1586       C  0.03676190  0.11134422  0.66833018     0.02600
C1587       C  0.01438430  0.18207904  0.70352301     0.09400
N1588       N  0.99850799  0.18953252  0.63951045     0.65800
H1589       H  0.01411957  0.14577183  0.60753363     0.18700
N1590       N  0.04423881  0.08261613  0.67769338     0.76200
H1591       H  0.03423803  0.12785733  0.71161815     0.10200
C1592       C  0.99885056  0.17699039  0.72958644     0.03900
C1593       C  0.99297950  0.19999329  0.74843523    -0.04800
C1594       C  0.00339728  0.22790875  0.74284476    -0.23200
C1595       C  0.02308910  0.23178970  0.71990970     0.13100
C1596       C  0.02846010  0.20888746  0.70057480    -0.12400
N1597       N  0.98987344  0.14861237  0.73807608     0.64800
H1598       H  0.97896563  0.19634033  0.76691148     0.12700
N1599       N  0.03793162  0.25860921  0.71618782     0.61400
H1600       H  0.04406113  0.21198862  0.68339540     0.08800
O1601       O  0.03601575  0.06113536  0.66307074    -0.40000
O1602       O  0.05527788  0.07837435  0.70242043    -0.39200
O1603       O  0.01265282  0.21264033  0.64178942    -0.39200
O1604       O  0.98005201  0.18811534  0.61943214    -0.36900
O1605       O  0.05733630  0.26539889  0.73409841    -0.37800
O1606       O  0.03638150  0.27194747  0.69223625    -0.34000
O1607       O  0.00510665  0.13472759  0.75609691    -0.35400
O1608       O  0.96392919  0.14150782  0.73506144    -0.39700
C1609       C  0.94860959  0.22768029  0.67388698    -0.13300
C1610       C  0.93269024  0.20277382  0.68050749     0.17000
C1611       C  0.92068169  0.19995702  0.70866260     0.03300
C1612       C  0.92781585  0.21984145  0.73030245    -0.11900
C1613       C  0.94592875  0.24318910  0.72426659    -0.02900
C1614       C  0.95473197  0.24848690  0.69524570     0.02600
C1615       C  0.92940615  0.17958104  0.65836550     0.09400
N1616       N  0.90007771  0.17800880  0.71538213     0.65800
H1617       H  0.92015159  0.21632948  0.75229873     0.18700
N1618       N  0.96969753  0.27462698  0.68720016     0.76200
H1619       H  0.95656974  0.23078073  0.65202490     0.10200
C1620       C  0.91736071  0.18458383  0.63066222     0.03900
C1621       C  0.90921927  0.16088976  0.61356005    -0.04800
C1622       C  0.91124169  0.13218770  0.62454250    -0.23200
C1623       C  0.93232219  0.12813440  0.64686516     0.13100
C1624       C  0.93946913  0.15169370  0.66462256    -0.12400
N1625       N  0.91038255  0.21314060  0.62095452     0.64800
H1626       H  0.89793887  0.16536274  0.59341375     0.12700
N1627       N  0.94501521  0.10062242  0.65356821     0.61400
H1628       H  0.95276058  0.14813523  0.68352231     0.08800
O1629       O  0.96745572  0.29709159  0.70254500    -0.40000
O1630       O  0.98190929  0.27661138  0.66275083    -0.39200
O1631       O  0.90827267  0.15520835  0.72803790    -0.39200
O1632       O  0.87395356  0.18515059  0.71720498    -0.36900
O1633       O  0.94060997  0.08926299  0.67818294    -0.37800
O1634       O  0.96776533  0.09383182  0.64035626    -0.34000
O1635       O  0.92554808  0.22499892  0.60155009    -0.35400
O1636       O  0.88647097  0.22414772  0.62765485    -0.39700
C1637       C  0.92951818  0.37892196  0.89381192    -0.13300
C1638       C  0.90884471  0.37013011  0.87351709     0.17000
C1639       C  0.88120058  0.38152209  0.87525928     0.03300
C1640       C  0.87499926  0.40215002  0.89623923    -0.11900
C1641       C  0.89588231  0.41329371  0.91614926    -0.02900
C1642       C  0.92352168  0.39995357  0.91503801     0.02600
C1643       C  0.91702177  0.35076575  0.84933647     0.09400
N1644       N  0.85946721  0.37360536  0.85477975     0.65800
H1645       H  0.85351898  0.41104214  0.89554891     0.18700
N1646       N  0.94575087  0.40595045  0.93527980     0.76200
H1647       H  0.95088885  0.36978023  0.89283586     0.10200
C1648       C  0.93228568  0.36160795  0.82522337     0.03900
C1649       C  0.94251228  0.34263850  0.80399425    -0.04800
C1650       C  0.93704669  0.31289976  0.80607915    -0.23200
C1651       C  0.91825920  0.30267869  0.82792524     0.13100
C1652       C  0.90893980  0.32157101  0.84983132    -0.12400
N1653       N  0.93752715  0.39186533  0.82211933     0.64800
H1654       H  0.95617303  0.35086637  0.78676914     0.12700
N1655       N  0.90920965  0.27312620  0.82852055     0.61400
H1656       H  0.89574649  0.31340013  0.86744585     0.08800
O1657       O  0.96683822  0.42113371  0.92721887    -0.40000
O1658       O  0.94849553  0.38958489  0.95716043    -0.39200
O1659       O  0.84206867  0.35364097  0.86110115    -0.39200
O1660       O  0.85403442  0.39017538  0.83357903    -0.36900
O1661       O  0.91571662  0.25716572  0.84987037    -0.37800
O1662       O  0.89006930  0.26487051  0.81095590    -0.34000
O1663       O  0.95221728  0.40496076  0.84094421    -0.35400
O1664       O  0.92414285  0.40615278  0.80295797    -0.39700
C1665       C  0.99564923  0.33398846  0.86285893    -0.13300
C1666       C  0.01446018  0.35607612  0.85304228     0.17000
C1667       C  0.02741262  0.35185390  0.82525402     0.03300
C1668       C  0.01827405  0.32907259  0.80729087    -0.11900
C1669       C  0.99901625  0.30807728  0.81718590    -0.02900
C1670       C  0.98986589  0.30909223  0.84639198     0.02600
C1671       C  0.02160634  0.38092640  0.87360595     0.09400
N1672       N  0.05149783  0.36838326  0.81552300     0.65800
H1673       H  0.02659140  0.32754029  0.78533360     0.18700
N1674       N  0.97523855  0.28493613  0.85964920     0.76200
H1675       H  0.98563154  0.33544735  0.88392346     0.10200
C1676       C  0.02871381  0.40962019  0.86500957     0.03900
C1677       C  0.03954327  0.42946866  0.88555020    -0.04800
C1678       C  0.04216725  0.42307773  0.91553295    -0.23200
C1679       C  0.03002895  0.39577772  0.92445449     0.13100
C1680       C  0.02177913  0.37528689  0.90369065    -0.12400
N1681       N  0.02594264  0.41951223  0.83560189     0.64800
H1682       H  0.04734546  0.44914839  0.87661817     0.12700
N1683       N  0.02997606  0.38599882  0.95418039     0.61400
H1684       H  0.01698511  0.35389351  0.91185967     0.08800
O1685       O  0.96155192  0.28812830  0.88313605    -0.40000
O1686       O  0.97950265  0.25962535  0.85038106    -0.39200
O1687       O  0.07536090  0.36468721  0.82801123    -0.39200
O1688       O  0.05134896  0.37852341  0.78997236    -0.36900
O1689       O  0.00834689  0.39136788  0.96975014    -0.37800
O1690       O  0.04514864  0.36427832  0.96085782    -0.34000
O1691       O  0.00165462  0.42799632  0.82687714    -0.35400
O1692       O  0.04796319  0.42927316  0.82290958    -0.39700
C1693       C  0.68636412  0.16523583  0.06137848    -0.13300
C1694       C  0.66501314  0.17453903  0.08084773     0.17000
C1695       C  0.66558886  0.20367281  0.09020981     0.03300
C1696       C  0.68648718  0.22289128  0.07926355    -0.11900
C1697       C  0.70608162  0.21410733  0.05782832    -0.02900
C1698       C  0.70657014  0.18471279  0.04973663     0.02600
C1699       C  0.64166943  0.15410533  0.09051968     0.09400
N1700       N  0.64375001  0.21459036  0.10912368     0.65800
H1701       H  0.68603426  0.24533021  0.08592566     0.18700
N1702       N  0.72765215  0.17432485  0.02976582     0.76200
H1703       H  0.68707587  0.14279377  0.05478959     0.10200
C1704       C  0.62309157  0.14053388  0.07069398     0.03900
C1705       C  0.59926158  0.12419036  0.07996780    -0.04800
C1706       C  0.59238986  0.12135931  0.10969956    -0.23200
C1707       C  0.61237994  0.13475128  0.12974088     0.13100
C1708       C  0.63646684  0.15005230  0.11984306    -0.12400
N1709       N  0.62578850  0.14709853  0.04089485     0.64800
H1710       H  0.58525086  0.11537574  0.06346441     0.12700
N1711       N  0.60908062  0.13427331  0.16053093     0.61400
H1712       H  0.65080280  0.15991231  0.13554515     0.08800
O1713       O  0.75213927  0.16698544  0.03908662    -0.40000
O1714       O  0.72030961  0.16767546  0.00423181    -0.39200
O1715       O  0.65031815  0.22378904  0.13405849    -0.39200
O1716       O  0.61785548  0.21518759  0.10088022    -0.36900
O1717       O  0.62224520  0.11493588  0.17450865    -0.37800
O1718       O  0.60498345  0.15814571  0.17307976    -0.34000
O1719       O  0.63999583  0.13019792  0.02498091    -0.35400
O1720       O  0.62298736  0.17319903  0.03369788    -0.39700
C1721       C  0.63634538  0.22702444  0.00427750    -0.13300
C1722       C  0.63737350  0.20884086  0.97980855     0.17000
C1723       C  0.66238365  0.20993188  0.96224535     0.03300
C1724       C  0.68767763  0.22196524  0.97326821    -0.11900
C1725       C  0.68752644  0.23658852  0.99981289    -0.02900
C1726       C  0.66081046  0.24249855  0.01317210     0.02600
C1727       C  0.61658429  0.18421116  0.97614444     0.09400
N1728       N  0.66230973  0.19850353  0.93336899     0.65800
H1729       H  0.70752101  0.21974379  0.96115083     0.18700
N1730       N  0.65812292  0.26490106  0.03457416     0.76200
H1731       H  0.61714823  0.22854763  0.01730162     0.10200
C1732       C  0.58702738  0.18451131  0.98432673     0.03900
C1733       C  0.57010808  0.15937495  0.98046797    -0.04800
C1734       C  0.58131763  0.13610991  0.96436962    -0.23200
C1735       C  0.61156942  0.13270865  0.96588387     0.13100
C1736       C  0.62868605  0.15708469  0.96987878    -0.12400
N1737       N  0.57313812  0.21030515  0.99397547     0.64800
H1738       H  0.54711142  0.16088789  0.98388426     0.12700
N1739       N  0.62494195  0.10472639  0.96605544     0.61400
H1740       H  0.65181397  0.15438839  0.96971746     0.08800
O1741       O  0.63856248  0.26366428  0.05355427    -0.40000
O1742       O  0.67169508  0.28830997  0.03121346    -0.39200
O1743       O  0.64701219  0.21063874  0.91417809    -0.39200
O1744       O  0.68128768  0.18054621  0.92573904    -0.36900
O1745       O  0.64951819  0.10130622  0.95493193    -0.37800
O1746       O  0.61459783  0.08484150  0.98175283    -0.34000
O1747       O  0.56115871  0.21071608  0.01859613    -0.35400
O1748       O  0.56828840  0.23050908  0.97608921    -0.39700
C1749       C  0.80116979  0.33145744  0.07456834    -0.13300
C1750       C  0.82976321  0.32831599  0.06539082     0.17000
C1751       C  0.83860610  0.30002892  0.05677145     0.03300
C1752       C  0.81753970  0.27920882  0.04989503    -0.11900
C1753       C  0.78820460  0.28513015  0.05380661    -0.02900
C1754       C  0.78037152  0.31057198  0.06838840     0.02600
C1755       C  0.84894093  0.35466483  0.06599029     0.09400
N1756       N  0.86807117  0.29085815  0.05796940     0.65800
H1757       H  0.82406273  0.25857192  0.04101399     0.18700
N1758       N  0.75110129  0.31607256  0.07592809     0.76200
H1759       H  0.79479692  0.35035671  0.08669104     0.10200
C1760       C  0.84030151  0.38226489  0.05452171     0.03900
C1761       C  0.85684427  0.40706692  0.06019377    -0.04800
C1762       C  0.87781893  0.40610285  0.08168205    -0.23200
C1763       C  0.89135308  0.37859953  0.08547798     0.13100
C1764       C  0.87626733  0.35320659  0.07884266    -0.12400
N1765       N  0.81383758  0.38681915  0.03934054     0.64800
H1766       H  0.84950845  0.42791851  0.05223887     0.12700
N1767       N  0.92070319  0.37621487  0.09438015     0.61400
H1768       H  0.88538011  0.33280285  0.08567408     0.08800
O1769       O  0.74129946  0.30612062  0.09950693    -0.40000
O1770       O  0.73715168  0.33529438  0.06237502    -0.39200
O1771       O  0.87571729  0.27323390  0.07755299    -0.39200
O1772       O  0.88515549  0.29620988  0.03737637    -0.36900
O1773       O  0.93986222  0.38229704  0.07596664    -0.37800
O1774       O  0.92720290  0.36023519  0.11573708    -0.34000
O1775       O  0.81490045  0.40079624  0.01576993    -0.35400
O1776       O  0.79112833  0.38891709  0.05412034    -0.39700
C1777       C  0.81667077  0.31579163  0.96750214    -0.13300
C1778       C  0.80705921  0.34449087  0.97103529     0.17000
C1779       C  0.77879655  0.34867708  0.98252245     0.03300
C1780       C  0.76357685  0.32518368  0.99390839    -0.11900
C1781       C  0.77472401  0.29723081  0.99311770    -0.02900
C1782       C  0.80081105  0.29223928  0.97843261     0.02600
C1783       C  0.82685595  0.36944288  0.96392018     0.09400
N1784       N  0.76435424  0.37608158  0.98225167     0.65800
H1785       H  0.74272449  0.32886464  0.00372976     0.18700
N1786       N  0.81120632  0.26346751  0.97411041     0.76200
H1787       H  0.83692310  0.31165119  0.95667645     0.10200
C1788       C  0.85562043  0.37171146  0.97398270     0.03900
C1789       C  0.87131327  0.39758099  0.97019147    -0.04800
C1790       C  0.86060162  0.42131294  0.95383964    -0.23200
C1791       C  0.83090771  0.41878222  0.94544904     0.13100
C1792       C  0.81594980  0.39277790  0.94856270    -0.12400
N1793       N  0.87000093  0.34756095  0.98669123     0.64800
H1794       H  0.89359005  0.39770031  0.97703732     0.12700
N1795       N  0.81352700  0.44234323  0.93649327     0.61400
H1796       H  0.79484244  0.39130616  0.93906147     0.08800
O1797       O  0.79828022  0.24708116  0.95655057    -0.40000
O1798       O  0.83591229  0.25649591  0.98311266    -0.39200
O1799       O  0.74944767  0.38249648  0.96017964    -0.39200
O1800       O  0.75732920  0.38723266  0.00619706    -0.36900
O1801       O  0.80335762  0.45831441  0.95617475    -0.37800
O1802       O  0.79976495  0.43997378  0.91292830    -0.34000
O1803       O  0.89387432  0.33914765  0.97677944    -0.35400
O1804       O  0.85829000  0.33379488  0.00704722    -0.39700
C1805       C  0.15109754  0.71483766  0.08609109    -0.13300
C1806       C  0.12857747  0.71043996  0.06614890     0.17000
C1807       C  0.12502524  0.73072414  0.04335936     0.03300
C1808       C  0.14678073  0.75104114  0.03806760    -0.11900
C1809       C  0.17270197  0.75048508  0.05397472    -0.02900
C1810       C  0.17336370  0.73435929  0.08008175     0.02600
C1811       C  0.11079584  0.68369060  0.06861344     0.09400
N1812       N  0.10031094  0.73045667  0.02472893     0.65800
H1813       H  0.14455443  0.76558496  0.01966735     0.18700
N1814       N  0.19656757  0.73681093  0.10030191     0.76200
H1815       H  0.15217465  0.70197744  0.10579241     0.10200
C1816       C  0.12404959  0.65633769  0.07052271     0.03900
C1817       C  0.10745517  0.63160196  0.07442656    -0.04800
C1818       C  0.07775446  0.63304735  0.08021353    -0.23200
C1819       C  0.06399076  0.65966497  0.07182498     0.13100
C1820       C  0.08065288  0.68477077  0.06776481    -0.12400
N1821       N  0.15460803  0.65298937  0.06945341     0.64800
H1822       H  0.11902289  0.61164683  0.07417694     0.12700
N1823       N  0.03330199  0.66273538  0.07158914     0.61400
H1824       H  0.06981814  0.70535014  0.06509475     0.08800
O1825       O  0.19433073  0.75439537  0.12110026    -0.40000
O1826       O  0.21531126  0.71711632  0.10166440    -0.39200
O1827       O  0.08493930  0.75284828  0.02225253    -0.39200
O1828       O  0.09410373  0.70824562  0.01019400    -0.36900
O1829       O  0.01945022  0.65471807  0.04944913    -0.37800
O1830       O  0.02157073  0.68039924  0.08876011    -0.34000
O1831       O  0.16849892  0.65266167  0.09304880    -0.35400
O1832       O  0.16558273  0.64097773  0.04755813    -0.39700
C1833       C  0.11871421  0.65058997  0.98664474    -0.13300
C1834       C  0.13458452  0.66572089  0.96532904     0.17000
C1835       C  0.13002015  0.65844232  0.93609633     0.03300
C1836       C  0.10785027  0.63941332  0.92866024    -0.11900
C1837       C  0.09015511  0.62510293  0.94956579    -0.02900
C1838       C  0.09697733  0.63041982  0.97924019     0.02600
C1839       C  0.15508348  0.68947574  0.97383487     0.09400
N1840       N  0.14829928  0.66947644  0.91357307     0.65800
H1841       H  0.10396357  0.63678203  0.90571238     0.18700
N1842       N  0.08102401  0.61738976  0.00223268     0.76200
H1843       H  0.12236243  0.65539801  0.00933644     0.10200
C1844       C  0.15269729  0.71820698  0.96297111     0.03900
C1845       C  0.17124464  0.74003666  0.97312611    -0.04800
C1846       C  0.19178774  0.73425925  0.99472947    -0.23200
C1847       C  0.19561974  0.70528336  0.00390514     0.13100
C1848       C  0.17745104  0.68336358  0.99339303    -0.12400
N1849       N  0.13005996  0.72634139  0.94357656     0.64800
H1850       H  0.16790044  0.76213315  0.96591611     0.12700
N1851       N  0.21814108  0.69775342  0.02371950     0.61400
H1852       H  0.18099760  0.66128499  0.00032192     0.08800
O1853       O  0.05851321  0.62959163  0.01124939    -0.40000
O1854       O  0.09229173  0.59739728  0.01715569    -0.39200
O1855       O  0.17481880  0.66368179  0.91419422    -0.39200
O1856       O  0.13742222  0.67967093  0.89052584    -0.36900
O1857       O  0.24380927  0.69750809  0.01488015    -0.37800
O1858       O  0.21208636  0.68584193  0.04766860    -0.34000
O1859       O  0.10540466  0.73098082  0.95389874    -0.35400
O1860       O  0.13630566  0.73677332  0.91896946    -0.39700
C1861       C  0.31096932  0.82951881  0.06382378    -0.13300
C1862       C  0.30319886  0.85538093  0.07745785     0.17000
C1863       C  0.27415412  0.85943872  0.08555580     0.03300
C1864       C  0.25300279  0.83980280  0.07591334    -0.11900
C1865       C  0.26072464  0.81499341  0.06014573    -0.02900
C1866       C  0.29027707  0.80883460  0.05619207     0.02600
C1867       C  0.32627780  0.87665982  0.08461729     0.09400
N1868       N  0.26619584  0.88226154  0.10488875     0.65800
H1869       H  0.23052666  0.84419469  0.08019188     0.18700
N1870       N  0.29948060  0.78145626  0.04485055     0.76200
H1871       H  0.33346145  0.82507844  0.05978182     0.10200
C1872       C  0.34690733  0.86994372  0.10570946     0.03900
C1873       C  0.36857679  0.88976758  0.11234522    -0.04800
C1874       C  0.37116719  0.91729281  0.09820534    -0.23200
C1875       C  0.35201910  0.92215070  0.07432079     0.13100
C1876       C  0.32961814  0.90232960  0.06849151    -0.12400
N1877       N  0.34539639  0.84334329  0.12170575     0.64800
H1878       H  0.38139691  0.88362202  0.13084132     0.12700
N1879       N  0.35192898  0.94900799  0.05879824     0.61400
H1880       H  0.31480875  0.90715796  0.05110163     0.08800
O1881       O  0.28762885  0.75848170  0.05363951    -0.40000
O1882       O  0.32231627  0.77971145  0.03015119    -0.39200
O1883       O  0.24573097  0.89900806  0.09833914    -0.39200
O1884       O  0.27531688  0.88171729  0.13076094    -0.36900
O1885       O  0.36830832  0.95220927  0.03718714    -0.37800
O1886       O  0.33157508  0.96667858  0.06255929    -0.34000
O1887       O  0.36476759  0.82447361  0.11865821    -0.35400
O1888       O  0.32455020  0.83848589  0.13857322    -0.39700
C1889       C  0.30014652  0.84228852  0.97810835    -0.13300
C1890       C  0.29564674  0.86898062  0.99208343     0.17000
C1891       C  0.26815177  0.87428377  0.00407800     0.03300
C1892       C  0.24847671  0.85155098  0.00669756    -0.11900
C1893       C  0.25543194  0.82338311  0.99768239    -0.02900
C1894       C  0.28033956  0.81946648  0.98076241     0.02600
C1895       C  0.31859243  0.89160407  0.99067287     0.09400
N1896       N  0.25958178  0.90240781  0.01359322     0.65800
H1897       H  0.22845472  0.85538676  0.01810679     0.18700
N1898       N  0.28541426  0.79305549  0.96552677     0.76200
H1899       H  0.31904861  0.83922813  0.96473578     0.10200
C1900       C  0.34745507  0.88658962  0.99976299     0.03900
C1901       C  0.36910283  0.90601398  0.99108628    -0.04800
C1902       C  0.36326551  0.92661044  0.96930557    -0.23200
C1903       C  0.33432530  0.93636639  0.96748307     0.13100
C1904       C  0.31224402  0.91840202  0.97775793    -0.12400
N1905       N  0.35598914  0.86109452  0.01547854     0.64800
H1906       H  0.39125368  0.90085572  0.99632982     0.12700
N1907       N  0.32685012  0.96352130  0.95442994     0.61400
H1908       H  0.29028990  0.92413298  0.97259371     0.08800
O1909       O  0.30878783  0.77967040  0.96925695    -0.40000
O1910       O  0.27049808  0.78758805  0.94327239    -0.39200
O1911       O  0.24143870  0.91638721  0.99868341    -0.39200
O1912       O  0.26387931  0.90969867  0.03960673    -0.36900
O1913       O  0.33649576  0.98651667  0.96538263    -0.37800
O1914       O  0.30601674  0.96496996  0.93683686    -0.34000
O1915       O  0.35579024  0.83699299  0.00276296    -0.35400
O1916       O  0.37199440  0.86385151  0.03747440    -0.39700
C1917       C  0.17841570  0.48845803  0.17169696    -0.13300
C1918       C  0.15151068  0.48480612  0.18521639     0.17000
C1919       C  0.15043496  0.48438516  0.21595652     0.03300
C1920       C  0.17489507  0.49186230  0.23220805    -0.11900
C1921       C  0.20102232  0.49815985  0.21839872    -0.02900
C1922       C  0.20322852  0.49419471  0.18817777     0.02600
C1923       C  0.12676497  0.47424519  0.16756163     0.09400
N1924       N  0.12535688  0.47437464  0.23090145     0.65800
H1925       H  0.17338440  0.49321619  0.25568121     0.18700
N1926       N  0.23094248  0.49244174  0.17484478     0.76200
H1927       H  0.18047611  0.48496767  0.14851963     0.10200
C1928       C  0.10492774  0.49198996  0.15526227     0.03900
C1929       C  0.08425407  0.47954378  0.13643426    -0.04800
C1930       C  0.08178311  0.44939024  0.13304381    -0.23200
C1931       C  0.10162718  0.43186759  0.14990082     0.13100
C1932       C  0.12464842  0.44456932  0.16444530    -0.12400
N1933       N  0.10130876  0.52166068  0.16373147     0.64800
H1934       H  0.06776242  0.49330004  0.12745224     0.12700
N1935       N  0.09882684  0.40112329  0.15361891     0.61400
H1936       H  0.14017346  0.43083841  0.17549359     0.08800
O1937       O  0.23902249  0.51140160  0.15685656    -0.40000
O1938       O  0.24632483  0.47031161  0.17908820    -0.39200
O1939       O  0.12615190  0.45070912  0.24466618    -0.39200
O1940       O  0.10241090  0.48893034  0.23035346    -0.36900
O1941       O  0.07763948  0.39105255  0.16735013    -0.37800
O1942       O  0.12082024  0.38534088  0.15104059    -0.34000
O1943       O  0.08186146  0.53672973  0.15196193    -0.35400
O1944       O  0.11246014  0.53076243  0.18691519    -0.39700
C1945       C  0.12032920  0.60096396  0.16408716    -0.13300
C1946       C  0.14127360  0.58316009  0.15188704     0.17000
C1947       C  0.13470579  0.57037035  0.12456263     0.03300
C1948       C  0.10821159  0.57675520  0.11038281    -0.11900
C1949       C  0.08748001  0.59552050  0.12279055    -0.02900
C1950       C  0.09268224  0.60237469  0.15278302     0.02600
C1951       C  0.16612364  0.57503765  0.17163219     0.09400
N1952       N  0.15430969  0.55112594  0.11063964     0.65800
H1953       H  0.10463418  0.56805325  0.08886996     0.18700
N1954       N  0.07007427  0.60529714  0.17382309     0.76200
H1955       H  0.12400547  0.61062754  0.18517567     0.10200
C1956       C  0.19538089  0.57381734  0.16305541     0.03900
C1957       C  0.21668616  0.56562994  0.18352795    -0.04800
C1958       C  0.20960718  0.55986135  0.21269674    -0.23200
C1959       C  0.18124357  0.56437746  0.22187602     0.13100
C1960       C  0.15993771  0.57043053  0.20142691    -0.12400
N1961       N  0.20410334  0.58201718  0.13437707     0.64800
H1962       H  0.23882059  0.56344638  0.17660875     0.12700
N1963       N  0.17379492  0.56288601  0.25209781     0.61400
H1964       H  0.13816924  0.57205646  0.20947431     0.08800
O1965       O  0.07200828  0.62454663  0.19312641    -0.40000
O1966       O  0.05442696  0.58365297  0.17902175    -0.39200
O1967       O  0.15488036  0.52493059  0.11830980    -0.39200
O1968       O  0.16491767  0.55822201  0.08637832    -0.36900
O1969       O  0.18552773  0.58012376  0.26968902    -0.37800
O1970       O  0.15189607  0.54888596  0.26011943    -0.34000
O1971       O  0.22048843  0.56564448  0.12002856    -0.35400
O1972       O  0.20023672  0.60770420  0.12585856    -0.39700
C1973       C  0.11636064  0.15192331  0.57104364    -0.13300
C1974       C  0.11610421  0.17834853  0.58567399     0.17000
C1975       C  0.09456847  0.18338125  0.60607499     0.03300
C1976       C  0.07437062  0.16202428  0.61211338    -0.11900
C1977       C  0.07470734  0.13387828  0.59934050    -0.02900
C1978       C  0.09674879  0.12963689  0.57787072     0.02600
C1979       C  0.13873869  0.20043207  0.58049642     0.09400
N1980       N  0.09544723  0.20844693  0.62423513     0.65800
H1981       H  0.06204526  0.16701364  0.63103451     0.18700
N1982       N  0.10274848  0.10207698  0.56541695     0.76200
H1983       H  0.13303385  0.14785298  0.55513995     0.10200
C1984       C  0.16812129  0.19458655  0.58566090     0.03900
C1985       C  0.18869959  0.21610284  0.58044582    -0.04800
C1986       C  0.18047585  0.24339604  0.57005447    -0.23200
C1987       C  0.15102997  0.25018750  0.56782282     0.13100
C1988       C  0.13048953  0.22851609  0.57223684    -0.12400
N1989       N  0.17743145  0.16691509  0.59594740     0.64800
H1990       H  0.21130565  0.21096317  0.58279046     0.12700
N1991       N  0.14185292  0.27896907  0.56091022     0.61400
H1992       H  0.10793844  0.23362945  0.56923831     0.08800
O1993       O  0.12419622  0.08827760  0.57502085    -0.40000
O1994       O  0.09518433  0.09779728  0.53941643    -0.39200
O1995       O  0.07681766  0.22806599  0.62105712    -0.39200
O1996       O  0.11104516  0.20822907  0.64672654    -0.36900
O1997       O  0.14657224  0.29900611  0.57883706    -0.37800
O1998       O  0.12449037  0.28330831  0.54022811    -0.34000
O1999       O  0.18586238  0.14824548  0.57792424    -0.35400
O2000       O  0.18343928  0.16367354  0.62253760    -0.39700
C2001       C  0.17764644  0.18240362  0.50675208    -0.13300
C2002       C  0.14939939  0.18837568  0.49755000     0.17000
C2003       C  0.14127113  0.21761093  0.49300157     0.03300
C2004       C  0.16085210  0.23988237  0.49865749    -0.11900
C2005       C  0.18855912  0.23377820  0.50876644    -0.02900
C2006       C  0.19746401  0.20474681  0.51132216     0.02600
C2007       C  0.12951591  0.16408361  0.49033803     0.09400
N2008       N  0.11318320  0.22522516  0.48285562     0.65800
H2009       H  0.15396511  0.26216228  0.49642061     0.18700
N2010       N  0.22672638  0.19778872  0.51803303     0.76200
H2011       H  0.18451479  0.16025137  0.51006854     0.10200
C2012       C  0.13784401  0.14202330  0.47116491     0.03900
C2013       C  0.11705201  0.12386565  0.45912358    -0.04800
C2014       C  0.08725318  0.12669542  0.46550129    -0.23200
C2015       C  0.08019344  0.14568382  0.48885420     0.13100
C2016       C  0.10117654  0.16408974  0.50064525    -0.12400
N2017       N  0.16652371  0.14045675  0.45998894     0.64800
H2018       H  0.12501221  0.11135916  0.44136379     0.12700
N2019       N  0.05126308  0.14898885  0.49885934     0.61400
H2020       H  0.09485526  0.17949732  0.51710746     0.08800
O2021       O  0.23252825  0.18162640  0.53943880    -0.40000
O2022       O  0.24594816  0.20288387  0.49935620    -0.39200
O2023       O  0.09435072  0.23272227  0.50107126    -0.39200
O2024       O  0.10979756  0.23205627  0.45647482    -0.36900
O2025       O  0.04270507  0.13347586  0.51976343    -0.37800
O2026       O  0.03808026  0.17225993  0.49338345    -0.34000
O2027       O  0.18209416  0.11894020  0.46626234    -0.35400
O2028       O  0.17417473  0.15736711  0.43981929    -0.39700
C2029       C  0.53067779  0.18063859  0.14181114    -0.13300
C2030       C  0.53343401  0.18034550  0.17227368     0.17000
C2031       C  0.54299648  0.15464040  0.18545462     0.03300
C2032       C  0.54928768  0.13042808  0.16859328    -0.11900
C2033       C  0.54784967  0.13010690  0.13764009    -0.02900
C2034       C  0.53779638  0.15639704  0.12453806     0.02600
C2035       C  0.52456157  0.20578167  0.19057584     0.09400
N2036       N  0.54949495  0.15341676  0.21594067     0.65800
H2037       H  0.56000818  0.11387506  0.18079640     0.18700
N2038       N  0.53584251  0.15988961  0.09367482     0.76200
H2039       H  0.52350828  0.20006610  0.13098543     0.10200
C2040       C  0.53251683  0.23466732  0.18418163     0.03900
C2041       C  0.52163236  0.25748714  0.20123759    -0.04800
C2042       C  0.50445802  0.25192545  0.22579640    -0.23200
C2043       C  0.49911095  0.22300766  0.23401856     0.13100
C2044       C  0.50783319  0.20067217  0.21553792    -0.12400
N2045       N  0.55266794  0.24103797  0.16154554     0.64800
H2046       H  0.52649658  0.27964178  0.19528684     0.12700
N2047       N  0.48517280  0.21592287  0.26111613     0.61400
H2048       H  0.50190653  0.17884337  0.22121958     0.08800
O2049       O  0.51118361  0.16154748  0.08227871    -0.40000
O2050       O  0.55676738  0.17101717  0.08027984    -0.39200
O2051       O  0.53744166  0.13477845  0.23191195    -0.39200
O2052       O  0.56970563  0.16848039  0.22615173    -0.36900
O2053       O  0.48877973  0.23169304  0.28315049    -0.37800
O2054       O  0.47328763  0.19161232  0.26449894    -0.34000
O2055       O  0.54630318  0.25912767  0.14192480    -0.35400
O2056       O  0.57834792  0.23250103  0.16401017    -0.39700
C2057       C  0.42385037  0.21601219  0.20101600    -0.13300
C2058       C  0.43735133  0.21572649  0.17359901     0.17000
C2059       C  0.45081397  0.24156295  0.16407486     0.03300
C2060       C  0.45466227  0.26461445  0.18352485    -0.11900
C2061       C  0.44464702  0.26299602  0.21231197    -0.02900
C2062       C  0.42715548  0.23942081  0.22019799     0.02600
C2063       C  0.43415141  0.18964959  0.15442171     0.09400
N2064       N  0.46103933  0.24479432  0.13494669     0.65800
H2065       H  0.46739062  0.28306056  0.17674592     0.18700
N2066       N  0.41270503  0.23900269  0.24761369     0.76200
H2067       H  0.41034449  0.19806607  0.20751144     0.10200
C2068       C  0.44268735  0.16123850  0.16288788     0.03900
C2069       C  0.43410873  0.13726402  0.14610412    -0.04800
C2070       C  0.41281240  0.14036140  0.12478144    -0.23200
C2071       C  0.41120153  0.16852716  0.11170726     0.13100
C2072       C  0.42080077  0.19279176  0.12723007    -0.12400
N2073       N  0.45888102  0.15576579  0.18881702     0.64800
H2074       H  0.44150637  0.11582758  0.15207233     0.12700
N2075       N  0.39979200  0.17296256  0.08304435     0.61400
H2076       H  0.41603788  0.21412495  0.11874731     0.08800
O2077       O  0.39045233  0.25425675  0.25094711    -0.40000
O2078       O  0.41871656  0.21981239  0.26623481    -0.39200
O2079       O  0.44797681  0.26163565  0.11774571    -0.39200
O2080       O  0.48613249  0.23668920  0.12872253    -0.36900
O2081       O  0.38147220  0.19265280  0.07850302    -0.37800
O2082       O  0.41178692  0.16100316  0.06162138    -0.34000
O2083       O  0.44699009  0.15918985  0.21320190    -0.35400
O2084       O  0.48040212  0.13920986  0.18737522    -0.39700
C2085       C  0.02836970  0.34948507  0.21462993    -0.13300
C2086       C  0.01535986  0.37678449  0.21826676     0.17000
C2087       C  0.99920975  0.38165653  0.24412654     0.03300
C2088       C  0.99349547  0.35842312  0.26289321    -0.11900
C2089       C  0.00362941  0.33067785  0.25704700    -0.02900
C2090       C  0.02325192  0.32672979  0.23420660     0.02600
C2091       C  0.01713416  0.39738525  0.19306335     0.09400
N2092       N  0.98699352  0.40902469  0.25162556     0.65800
H2093       H  0.97914687  0.36158338  0.28118195     0.18700
N2094       N  0.03763962  0.29965909  0.23043596     0.76200
H2095       H  0.04196001  0.34557094  0.19591054     0.10200
C2096       C  0.03012304  0.42483371  0.19458106     0.03900
C2097       C  0.03578636  0.44013376  0.16879937    -0.04800
C2098       C  0.03340321  0.42696203  0.14094136    -0.23200
C2099       C  0.01350733  0.40372090  0.13993344     0.13100
C2100       C  0.00735389  0.38808862  0.16561142    -0.12400
N2101       N  0.04129101  0.43610053  0.22119913     0.64800
H2102       H  0.04579463  0.46099419  0.17124217     0.12700
N2103       N  0.99815400  0.39665798  0.11393841     0.61400
H2104       H  0.99512656  0.36833580  0.16403972     0.08800
O2105       O  0.05858417  0.29342470  0.24677643    -0.40000
O2106       O  0.03347294  0.28501017  0.20774368    -0.39200
O2107       O  0.00307417  0.42734867  0.26364503    -0.39200
O2108       O  0.96065481  0.40964559  0.25812078    -0.36900
O2109       O  0.99669925  0.37063516  0.10585601    -0.37800
O2110       O  0.97859825  0.41379444  0.10586146    -0.34000
O2111       O  0.05954096  0.42167307  0.23553170    -0.35400
O2112       O  0.03711029  0.46232973  0.22748794    -0.39700
C2113       C  0.90826400  0.20801777  0.33595899    -0.13300
C2114       C  0.92716297  0.18502500  0.34271785     0.17000
C2115       C  0.95265834  0.18278215  0.32598283     0.03300
C2116       C  0.95984679  0.20503348  0.30639236    -0.11900
C2117       C  0.94427648  0.23111733  0.30556023    -0.02900
C2118       C  0.91722111  0.23172922  0.31915110     0.02600
C2119       C  0.92008946  0.16519282  0.36789865     0.09400
N2120       N  0.97262724  0.15950434  0.32985230     0.65800
H2121       H  0.97950240  0.20324267  0.29405175     0.18700
N2122       N  0.89973997  0.25712065  0.31846384     0.76200
H2123       H  0.88704790  0.20871796  0.34546455     0.10200
C2124       C  0.90733920  0.17625692  0.39343108     0.03900
C2125       C  0.89796732  0.15763996  0.41529217    -0.04800
C2126       C  0.89973900  0.12713765  0.41312231    -0.23200
C2127       C  0.91725083  0.11637992  0.38991938     0.13100
C2128       C  0.92592831  0.13522162  0.36723248    -0.12400
N2129       N  0.90372475  0.20661807  0.39810796     0.64800
H2130       H  0.88787582  0.16824900  0.43333211     0.12700
N2131       N  0.92375903  0.08625461  0.38678974     0.61400
H2132       H  0.93566269  0.12567565  0.34821845     0.08800
O2133       O  0.87748976  0.25765518  0.30274275    -0.40000
O2134       O  0.90304891  0.27611179  0.33780068    -0.39200
O2135       O  0.98102827  0.14518649  0.30814140    -0.39200
O2136       O  0.98455475  0.15554968  0.35420038    -0.36900
O2137       O  0.94936131  0.07806789  0.39081915    -0.37800
O2138       O  0.90756153  0.07065052  0.37144752    -0.34000
O2139       O  0.87866347  0.21713107  0.39801502    -0.35400
O2140       O  0.92346796  0.22034181  0.41073062    -0.39700
C2141       C  0.94559509  0.34553802  0.19274627    -0.13300
C2142       C  0.92773436  0.36761765  0.20332098     0.17000
C2143       C  0.91592764  0.36406829  0.23146857     0.03300
C2144       C  0.92491631  0.34083556  0.24942362    -0.11900
C2145       C  0.94454780  0.31988813  0.23945482    -0.02900
C2146       C  0.95363392  0.32146455  0.21003237     0.02600
C2147       C  0.91549847  0.38878004  0.18171424     0.09400
N2148       N  0.89390338  0.38316811  0.24163449     0.65800
H2149       H  0.91714113  0.33961060  0.27160236     0.18700
N2150       N  0.97023257  0.29851949  0.19713968     0.76200
H2151       H  0.95177439  0.34616906  0.17007638     0.10200
C2152       C  0.93066163  0.41261561  0.16953374     0.03900
C2153       C  0.92085145  0.42564207  0.14345351    -0.04800
C2154       C  0.89402349  0.41865007  0.13146820    -0.23200
C2155       C  0.87690787  0.39788962  0.14721627     0.13100
C2156       C  0.88847738  0.38246318  0.17060754    -0.12400
N2157       N  0.95200155  0.42764764  0.18594643     0.64800
H2158       H  0.93318535  0.44304659  0.13389256     0.12700
N2159       N  0.84758808  0.39171683  0.14017062     0.61400
H2160       H  0.87595030  0.36518726  0.18034370     0.08800
O2161       O  0.98353452  0.30275731  0.17357270    -0.40000
O2162       O  0.96908373  0.27314030  0.20732284    -0.39200
O2163       O  0.86914083  0.37341701  0.24703033    -0.39200
O2164       O  0.89839453  0.41001789  0.24313710    -0.36900
O2165       O  0.82847336  0.40298435  0.15590413    -0.37800
O2166       O  0.84180184  0.36789977  0.12832262    -0.34000
O2167       O  0.97092249  0.44199199  0.17259652    -0.35400
O2168       O  0.94530976  0.43572432  0.21116379    -0.39700
C2169       C  0.02891840  0.21103040  0.34912032    -0.13300
C2170       C  0.01761788  0.21469440  0.37738665     0.17000
C2171       C  0.99863412  0.23821178  0.38208329     0.03300
C2172       C  0.98845305  0.25439105  0.35801341    -0.11900
C2173       C  0.99958761  0.25018057  0.32992442    -0.02900
C2174       C  0.02136665  0.22943114  0.32603708     0.02600
C2175       C  0.02820000  0.19446979  0.40090892     0.09400
N2176       N  0.99205578  0.24795915  0.41089630     0.65800
H2177       H  0.97266523  0.27130056  0.36132861     0.18700
N2178       N  0.03574074  0.22654374  0.29869263     0.76200
H2179       H  0.04441431  0.19402786  0.34498915     0.10200
C2180       C  0.01037441  0.17661035  0.41839286     0.03900
C2181       C  0.02190827  0.15239953  0.43314433    -0.04800
C2182       C  0.05113019  0.14494232  0.43106053    -0.23200
C2183       C  0.06935477  0.16523195  0.41600572     0.13100
C2184       C  0.05771179  0.18940491  0.40199998    -0.12400
N2185       N  0.98033470  0.18164171  0.42110080     0.64800
H2186       H  0.00741071  0.13909908  0.44572335     0.12700
N2187       N  0.09984414  0.16185407  0.41351086     0.61400
H2188       H  0.07206371  0.20346305  0.38989175     0.08800
O2189       O  0.05465243  0.24481975  0.29168392    -0.40000
O2190       O  0.03441788  0.20296490  0.28505056    -0.39200
O2191       O  0.01186619  0.24968034  0.42960657    -0.39200
O2192       O  0.96821654  0.25994641  0.41605956    -0.36900
O2193       O  0.10986868  0.14751972  0.39258249    -0.37800
O2194       O  0.11566107  0.18095980  0.42468161    -0.34000
O2195       O  0.96375383  0.16118596  0.41455113    -0.35400
O2196       O  0.97206611  0.19939429  0.44008548    -0.39700
C2197       C  0.34972331  0.00295467  0.16073814    -0.13300
C2198       C  0.32153008  0.99211292  0.16303621     0.17000
C2199       C  0.31382770  0.96836475  0.14601687     0.03300
C2200       C  0.33434339  0.95454573  0.12905916    -0.11900
C2201       C  0.36360000  0.96364079  0.12745350    -0.02900
C2202       C  0.37054350  0.98958653  0.14273030     0.02600
C2203       C  0.30028872  0.00359786  0.18441466     0.09400
N2204       N  0.28600029  0.95541010  0.14865906     0.65800
H2205       H  0.32684010  0.93455409  0.12004918     0.18700
N2206       N  0.39933210  0.00060496  0.14330899     0.76200
H2207       H  0.35622318  0.02085272  0.17426600     0.10200
C2208       C  0.30427282  0.99967069  0.21464626     0.03900
C2209       C  0.28183498  0.00562386  0.23394925    -0.04800
C2210       C  0.25543551  0.01618583  0.22398747    -0.23200
C2211       C  0.25075559  0.01899094  0.19388587     0.13100
C2212       C  0.27322125  0.01316358  0.17438133    -0.12400
N2213       N  0.33063294  0.98884952  0.22625998     0.64800
H2214       H  0.28530410  0.00254835  0.25700528     0.12700
N2215       N  0.22279831  0.02593417  0.18293385     0.61400
H2216       H  0.26923491  0.01504323  0.15121976     0.08800
O2217       O  0.41702566  0.99089567  0.16175005    -0.40000
O2218       O  0.40485130  0.02421483  0.13067307    -0.39200
O2219       O  0.26866466  0.95654105  0.12754994    -0.39200
O2220       O  0.28064323  0.93901915  0.16999805    -0.36900
O2221       O  0.20422186  0.00625655  0.18029495    -0.37800
O2222       O  0.21623962  0.05172052  0.17681968    -0.34000
O2223       O  0.35034717  0.00651583  0.23243430    -0.35400
O2224       O  0.33095568  0.96403911  0.23781583    -0.39700
C2225       C  0.16347875  0.07888303  0.35657396    -0.13300
C2226       C  0.13423888  0.07321484  0.35065032     0.17000
C2227       C  0.12641357  0.06684534  0.32146156     0.03300
C2228       C  0.14761669  0.06447968  0.30010484    -0.11900
C2229       C  0.17681559  0.06640884  0.30705481    -0.02900
C2230       C  0.18477089  0.07492970  0.33525894     0.02600
C2231       C  0.11206454  0.07763110  0.37393504     0.09400
N2232       N  0.09719214  0.06208274  0.31288784     0.65800
H2233       H  0.14134193  0.05877249  0.27818719     0.18700
N2234       N  0.21433567  0.07907915  0.34265763     0.76200
H2235       H  0.16994249  0.08662518  0.37771403     0.10200
C2236       C  0.11440758  0.06628686  0.40265670     0.03900
C2237       C  0.09443318  0.07465091  0.42402259    -0.04800
C2238       C  0.07446752  0.09685981  0.41846397    -0.23200
C2239       C  0.06789658  0.10216225  0.38867069     0.13100
C2240       C  0.08768454  0.09423746  0.36727786    -0.12400
N2241       N  0.13771497  0.04799961  0.41143574     0.64800
H2242       H  0.09778191  0.06734327  0.44621371     0.12700
N2243       N  0.04139478  0.11518401  0.37955100     0.61400
H2244       H  0.08435438  0.10241189  0.34549124     0.08800
O2245       O  0.22483518  0.10422098  0.34248675    -0.40000
O2246       O  0.23056652  0.05756572  0.34680459    -0.39200
O2247       O  0.08590303  0.07845034  0.29401100    -0.39200
O2248       O  0.08510859  0.03845002  0.31901095    -0.36900
O2249       O  0.01789264  0.10388119  0.38719004    -0.37800
O2250       O  0.04140415  0.13397724  0.35954342    -0.34000
O2251       O  0.15992207  0.05960303  0.42197318    -0.35400
O2252       O  0.13222420  0.02222668  0.41856221    -0.39700
C2253       C  0.31586465  0.07464329  0.23706758    -0.13300
C2254       C  0.31358530  0.08356968  0.20774673     0.17000
C2255       C  0.28599550  0.09235061  0.19755311     0.03300
C2256       C  0.26147450  0.08733162  0.21451147    -0.11900
C2257       C  0.26372483  0.07499899  0.24218002    -0.02900
C2258       C  0.29120825  0.07162895  0.25456936     0.02600
C2259       C  0.33899891  0.08270508  0.18736200     0.09400
N2260       N  0.28236476  0.10669149  0.17015279     0.65800
H2261       H  0.24044051  0.09188950  0.20549388     0.18700
N2262       N  0.29418084  0.06556358  0.28496176     0.76200
H2263       H  0.33645395  0.06879443  0.24626880     0.10200
C2264       C  0.36661453  0.09316775  0.19428628     0.03900
C2265       C  0.38649216  0.09905325  0.17186104    -0.04800
C2266       C  0.37996041  0.09454850  0.14187380    -0.23200
C2267       C  0.35494943  0.07688326  0.13686721     0.13100
C2268       C  0.33495065  0.07215708  0.15922879    -0.12400
N2269       N  0.37387894  0.10140416  0.22331476     0.64800
H2270       H  0.40517515  0.11013936  0.17919537     0.12700
N2271       N  0.34671972  0.06698040  0.10857419     0.61400
H2272       H  0.31528426  0.06076998  0.15408883     0.08800
O2273       O  0.29150067  0.04008977  0.29445069    -0.40000
O2274       O  0.29460702  0.08629624  0.30270753    -0.39200
O2275       O  0.27094662  0.09320990  0.14932447    -0.39200
O2276       O  0.28209350  0.13395994  0.16966298    -0.36900
O2277       O  0.35464013  0.04204224  0.10096549    -0.37800
O2278       O  0.32400850  0.07703581  0.09733805    -0.34000
O2279       O  0.39065206  0.08558205  0.23800744    -0.35400
O2280       O  0.36873941  0.12680959  0.23176785    -0.39700
C2281       C  0.09553863  0.99615267  0.37338461    -0.13300
C2282       C  0.11350530  0.97577443  0.35985438     0.17000
C2283       C  0.11122457  0.94684581  0.36814617     0.03300
C2284       C  0.09362990  0.93918772  0.39141405    -0.11900
C2285       C  0.07632471  0.95945540  0.40692091    -0.02900
C2286       C  0.07668183  0.98843562  0.39631002     0.02600
C2287       C  0.13577952  0.98481151  0.33838224     0.09400
N2288       N  0.12700860  0.92483808  0.35329111     0.65800
H2289       H  0.09494016  0.91691247  0.39822861     0.18700
N2290       N  0.05880983  0.01052688  0.40826888     0.76200
H2291       H  0.09698867  0.01855487  0.36700219     0.10200
C2292       C  0.16408817  0.99148784  0.34731194     0.03900
C2293       C  0.18407781  0.00152868  0.32692869    -0.04800
C2294       C  0.17682200  0.00482807  0.29753982    -0.23200
C2295       C  0.14951678  0.99552808  0.28805943     0.13100
C2296       C  0.12906878  0.98601502  0.30856868    -0.12400
N2297       N  0.17304527  0.98827336  0.37693129     0.64800
H2298       H  0.20525376  0.00792206  0.33427901     0.12700
N2299       N  0.14210269  0.99630105  0.25789854     0.61400
H2300       H  0.10781247  0.97980258  0.30125900     0.08800
O2301       O  0.04175838  0.02415279  0.39176925    -0.40000
O2302       O  0.06497085  0.02104628  0.43273847    -0.39200
O2303       O  0.14797309  0.91260705  0.36573039    -0.39200
O2304       O  0.11649250  0.91374891  0.33062375    -0.36900
O2305       O  0.15011210  0.97592160  0.24163167    -0.37800
O2306       O  0.12325354  0.01383384  0.24889202    -0.34000
O2307       O  0.18576740  0.00894491  0.38929945    -0.35400
O2308       O  0.17563774  0.96317675  0.38743794    -0.39700
C2309       C  0.11930001  0.37733340  0.93483069    -0.13300
C2310       C  0.12348141  0.37144822  0.96403506     0.17000
C2311       C  0.10755670  0.38699356  0.98473843     0.03300
C2312       C  0.08771936  0.40836242  0.97625066    -0.11900
C2313       C  0.08348035  0.41495512  0.94671960    -0.02900
C2314       C  0.10010518  0.39879871  0.92588865     0.02600
C2315       C  0.14459014  0.34888906  0.97259423     0.09400
N2316       N  0.11154193  0.38127546  0.01472239     0.65800
H2317       H  0.07615319  0.42007606  0.99287421     0.18700
N2318       N  0.09755226  0.40320329  0.89523641     0.76200
H2319       H  0.13138640  0.36537700  0.91868970     0.10200
C2320       C  0.13729484  0.31934218  0.97250528     0.03900
C2321       C  0.15692974  0.29881109  0.98317781    -0.04800
C2322       C  0.18362658  0.30744223  0.99441971    -0.23200
C2323       C  0.19169559  0.33671998  0.99243845     0.13100
C2324       C  0.17223664  0.35717356  0.98140472    -0.12400
N2325       N  0.10960236  0.31012059  0.96280613     0.64800
H2326       H  0.15081795  0.27623043  0.98402603     0.12700
N2327       N  0.21934654  0.34601748  0.00212762     0.61400
H2328       H  0.17833040  0.37977952  0.98064392     0.08800
O2329       O  0.11409842  0.42091812  0.88280532    -0.40000
O2330       O  0.08724992  0.38287794  0.88039580    -0.39200
O2331       O  0.09022950  0.37469601  0.03031236    -0.39200
O2332       O  0.13641935  0.38264938  0.02551098    -0.36900
O2333       O  0.24062178  0.34383555  0.98527542    -0.37800
O2334       O  0.22142914  0.36124951  0.02472923    -0.34000
O2335       O  0.10591720  0.30290135  0.93662926    -0.35400
O2336       O  0.08839844  0.31104448  0.97986772    -0.39700
C2337       C  0.28724734  0.20867806  0.09330531    -0.13300
C2338       C  0.28737464  0.18023627  0.08227117     0.17000
C2339       C  0.26551733  0.17246521  0.06221765     0.03300
C2340       C  0.24759593  0.19404739  0.05046983    -0.11900
C2341       C  0.24914102  0.22274255  0.06007467    -0.02900
C2342       C  0.26751837  0.22940553  0.08340382     0.02600
C2343       C  0.31141292  0.16022036  0.09113760     0.09400
N2344       N  0.26035867  0.14290193  0.05448676     0.65800
H2345       H  0.23210454  0.18843987  0.03380412     0.18700
N2346       N  0.26660821  0.25710663  0.09708702     0.76200
H2347       H  0.30296279  0.21524528  0.10935954     0.10200
C2348       C  0.32740827  0.14390392  0.07100021     0.03900
C2349       C  0.35248969  0.12899935  0.07914491    -0.04800
C2350       C  0.36332839  0.13069866  0.10750656    -0.23200
C2351       C  0.34691803  0.14760894  0.12802128     0.13100
C2352       C  0.32112168  0.16076337  0.11972772    -0.12400
N2353       N  0.32079683  0.14543943  0.04116185     0.64800
H2354       H  0.36420282  0.11731773  0.06263162     0.12700
N2355       N  0.35623893  0.15332727  0.15717776     0.61400
H2356       H  0.30940328  0.17317842  0.13575937     0.08800
O2357       O  0.24914519  0.26115429  0.11766841    -0.40000
O2358       O  0.28710749  0.27459341  0.09357872    -0.39200
O2359       O  0.25927650  0.12373273  0.07409080    -0.39200
O2360       O  0.25244762  0.13664375  0.02898396    -0.36900
O2361       O  0.37274290  0.17445668  0.16135463    -0.37800
O2362       O  0.33966556  0.14643158  0.17773148    -0.34000
O2363       O  0.32995911  0.16687120  0.02700294    -0.35400
O2364       O  0.31300862  0.12278730  0.02823026    -0.39700
C2365       C  0.11886114  0.39418366  0.08234545    -0.13300
C2366       C  0.11311214  0.36496440  0.08836053     0.17000
C2367       C  0.08553767  0.35808535  0.09911494     0.03300
C2368       C  0.06549954  0.38010969  0.10489779    -0.11900
C2369       C  0.07116891  0.40977940  0.09941020    -0.02900
C2370       C  0.09756551  0.41563240  0.08455493     0.02600
C2371       C  0.13452480  0.34198242  0.07974608     0.09400
N2372       N  0.07848906  0.32914981  0.10764926     0.65800
H2373       H  0.04729425  0.37296915  0.11675901     0.18700
N2374       N  0.10451582  0.44408966  0.07435425     0.76200
H2375       H  0.13963963  0.40050427  0.07402913     0.10200
C2376       C  0.16452860  0.34501344  0.08441050     0.03900
C2377       C  0.18385221  0.32489520  0.07250134    -0.04800
C2378       C  0.17407822  0.30068435  0.05721484    -0.23200
C2379       C  0.14421479  0.29613987  0.05463899     0.13100
C2380       C  0.12496263  0.31743006  0.06444282    -0.12400
N2381       N  0.17582176  0.36792212  0.10176928     0.64800
H2382       H  0.20676085  0.32818779  0.07522930     0.12700
N2383       N  0.13316257  0.26953203  0.04332612     0.61400
H2384       H  0.10230408  0.31459053  0.06003752     0.08800
O2385       O  0.09382881  0.45276474  0.05062910    -0.40000
O2386       O  0.12646389  0.45674355  0.08426420    -0.39200
O2387       O  0.09097572  0.31779052  0.12925233    -0.39200
O2388       O  0.05666400  0.31698365  0.09691322    -0.36900
O2389       O  0.11152267  0.26972575  0.02672944    -0.37800
O2390       O  0.14119095  0.24589695  0.05455078    -0.34000
O2391       O  0.17370832  0.36635095  0.12908266    -0.35400
O2392       O  0.19331677  0.38564463  0.09067543    -0.39700
C2393       C  0.31358422  0.22037142  0.99363294    -0.13300
C2394       C  0.30629988  0.19878599  0.97356441     0.17000
C2395       C  0.27713599  0.19547466  0.96572660     0.03300
C2396       C  0.25605799  0.21349565  0.97803242    -0.11900
C2397       C  0.26334519  0.23468391  0.99857523    -0.02900
C2398       C  0.29262658  0.23827632  0.00615935     0.02600
C2399       C  0.32936288  0.17856140  0.96349524     0.09400
N2400       N  0.26859667  0.17400422  0.94522277     0.65800
H2401       H  0.23370758  0.21033070  0.97219332     0.18700
N2402       N  0.30153170  0.25988258  0.02652805     0.76200
H2403       H  0.33583732  0.22292585  0.00012806     0.10200
C2404       C  0.35548256  0.18882387  0.95217193     0.03900
C2405       C  0.37813472  0.16941125  0.94623987    -0.04800
C2406       C  0.37615732  0.13927219  0.95265182    -0.23200
C2407       C  0.35097726  0.13067573  0.96825610     0.13100
C2408       C  0.32711810  0.14919288  0.96999994    -0.12400
N2409       N  0.35780921  0.21828894  0.94274390     0.64800
H2410       H  0.39504976  0.17860394  0.93355954     0.12700
N2411       N  0.34889856  0.10284081  0.98187700     0.61400
H2412       H  0.30731210  0.14120127  0.97924529     0.08800
O2413       O  0.32100107  0.25415824  0.04485495    -0.40000
O2414       O  0.29353610  0.28576928  0.02314078    -0.39200
O2415       O  0.25685792  0.15101675  0.95409048    -0.39200
O2416       O  0.26759507  0.18038118  0.91852702    -0.36900
O2417       O  0.36350191  0.09816995  0.00458511    -0.37800
O2418       O  0.32716594  0.08722793  0.97708731    -0.34000
O2419       O  0.37775100  0.23409466  0.95229536    -0.35400
O2420       O  0.34010680  0.22845534  0.92451621    -0.39700
C2421       C  0.50455156  0.66997456  0.64641244    -0.13300
C2422       C  0.51754175  0.67195875  0.67387715     0.17000
C2423       C  0.53900162  0.65188139  0.68100497     0.03300
C2424       C  0.54920838  0.63273625  0.66010756    -0.11900
C2425       C  0.53954571  0.63268799  0.63059268    -0.02900
C2426       C  0.51518679  0.65112179  0.62468220     0.02600
C2427       C  0.50965980  0.69514032  0.69506984     0.09400
N2428       N  0.55353342  0.65299228  0.70844982     0.65800
H2429       H  0.56753698  0.62069734  0.66751012     0.18700
N2430       N  0.50297115  0.65433898  0.59625953     0.76200
H2431       H  0.48716860  0.68462747  0.64098942     0.10200
C2432       C  0.51333450  0.72498120  0.68883890     0.03900
C2433       C  0.50859787  0.74568197  0.71060692    -0.04800
C2434       C  0.49974304  0.73738337  0.73847864    -0.23200
C2435       C  0.49854060  0.70770818  0.74542399     0.13100
C2436       C  0.50231050  0.68702220  0.72359642    -0.12400
N2437       N  0.52167814  0.73488680  0.66063582     0.64800
H2438       H  0.51049911  0.76840103  0.70527694     0.12700
N2439       N  0.49410996  0.69844244  0.77483309     0.61400
H2440       H  0.50031827  0.66433002  0.72918080     0.08800
O2441       O  0.51672620  0.66745570  0.57659509    -0.40000
O2442       O  0.47633765  0.65038474  0.59289835    -0.39200
O2443       O  0.55086007  0.63234389  0.72628099    -0.39200
O2444       O  0.57269227  0.67182878  0.71262623    -0.36900
O2445       O  0.51257866  0.70473675  0.79391440    -0.37800
O2446       O  0.47511942  0.67984742  0.78064620    -0.34000
O2447       O  0.50255478  0.73861578  0.64147871    -0.35400
O2448       O  0.54552669  0.74756254  0.65774834    -0.39700
C2449       C  0.59997816  0.56852289  0.66212049    -0.13300
C2450       C  0.62666523  0.58276754  0.66420528     0.17000
C2451       C  0.63285406  0.60457116  0.64409577     0.03300
C2452       C  0.61228612  0.61308385  0.62387992    -0.11900
C2453       C  0.58427055  0.60061166  0.62204466    -0.02900
C2454       C  0.57926362  0.57638093  0.64080213     0.02600
C2455       C  0.64848594  0.57476905  0.68674376     0.09400
N2456       N  0.65919831  0.62047945  0.64559277     0.65800
H2457       H  0.61869069  0.63175301  0.61170467     0.18700
N2458       N  0.55197124  0.56216772  0.64140402     0.76200
H2459       H  0.59516917  0.55114298  0.67708866     0.10200
C2460       C  0.64256977  0.57685433  0.71676850     0.03900
C2461       C  0.66338330  0.56811686  0.73718362    -0.04800
C2462       C  0.69061075  0.55861944  0.72818176    -0.23200
C2463       C  0.69781725  0.56020823  0.69847352     0.13100
C2464       C  0.67648964  0.56720089  0.67801719    -0.12400
N2465       N  0.61642481  0.58967243  0.72677166     0.64800
H2466       H  0.65814145  0.56818443  0.76014512     0.12700
N2467       N  0.72694465  0.55661442  0.68894732     0.61400
H2468       H  0.68189800  0.56682621  0.65510969     0.08800
O2469       O  0.54884733  0.53882682  0.62767214    -0.40000
O2470       O  0.53412803  0.56849667  0.66103346    -0.39200
O2471       O  0.67726837  0.61843197  0.62524679    -0.39200
O2472       O  0.66199641  0.64019170  0.66427274    -0.36900
O2473       O  0.73923839  0.57705397  0.67561139    -0.37800
O2474       O  0.74137573  0.53463170  0.69625189    -0.34000
O2475       O  0.60107872  0.57656798  0.74519278    -0.35400
O2476       O  0.61197050  0.61618532  0.72192889    -0.39700
C2477       C  0.60372939  0.68571111  0.58559255    -0.13300
C2478       C  0.62284640  0.67385814  0.56581904     0.17000
C2479       C  0.61683039  0.64567659  0.55509371     0.03300
C2480       C  0.59116451  0.63148555  0.56364726    -0.11900
C2481       C  0.57382406  0.64171839  0.58685302    -0.02900
C2482       C  0.58038583  0.67050441  0.59672468     0.02600
C2483       C  0.64862315  0.69202598  0.55846767     0.09400
N2484       N  0.63761668  0.62921050  0.53902418     0.65800
H2485       H  0.58807251  0.60959792  0.55611137     0.18700
N2486       N  0.56615744  0.68474166  0.61999697     0.76200
H2487       H  0.60856072  0.70653418  0.59511303     0.10200
C2488       C  0.64525104  0.72111371  0.54890537     0.03900
C2489       C  0.66938088  0.73844146  0.54401975    -0.04800
C2490       C  0.69729356  0.72804779  0.54874587    -0.23200
C2491       C  0.70076403  0.70050775  0.56158638     0.13100
C2492       C  0.67647140  0.68295807  0.56655580    -0.12400
N2493       N  0.61749604  0.73416591  0.54555129     0.64800
H2494       H  0.66633845  0.75995979  0.53504721     0.12700
N2495       N  0.72851961  0.69041294  0.57045236     0.61400
H2496       H  0.67941069  0.66289754  0.57830214     0.08800
O2497       O  0.54877117  0.70465526  0.61334617    -0.40000
O2498       O  0.57915916  0.68637593  0.64406439    -0.39200
O2499       O  0.66177534  0.62409697  0.55039620    -0.39200
O2500       O  0.62885761  0.61201209  0.51974975    -0.36900
O2501       O  0.74134497  0.70306933  0.59096587    -0.37800
O2502       O  0.73695150  0.66563365  0.56284139    -0.34000
O2503       O  0.60901244  0.75185934  0.56453078    -0.35400
O2504       O  0.60595172  0.73493966  0.52077550    -0.39700
C2505       C  0.43216896  0.37279223  0.64001761    -0.13300
C2506       C  0.42111621  0.37053791  0.66833488     0.17000
C2507       C  0.40675079  0.39447922  0.67972466     0.03300
C2508       C  0.40324507  0.41926853  0.66297360    -0.11900
C2509       C  0.41055176  0.42139600  0.63288968    -0.02900
C2510       C  0.42643386  0.39704633  0.62201909     0.02600
C2511       C  0.42457880  0.34360065  0.68618405     0.09400
N2512       N  0.39134546  0.39265654  0.70669062     0.65800
H2513       H  0.38855253  0.43353330  0.67315680     0.18700
N2514       N  0.43421825  0.39430939  0.59213925     0.76200
H2515       H  0.44437322  0.35495744  0.63112202     0.10200
C2516       C  0.41989959  0.31562667  0.67469764     0.03900
C2517       C  0.42568221  0.29108810  0.69187957    -0.04800
C2518       C  0.43445438  0.29400397  0.72085970    -0.23200
C2519       C  0.43452668  0.32160097  0.73354119     0.13100
C2520       C  0.43176838  0.34603029  0.71583362    -0.12400
N2521       N  0.40928881  0.31174422  0.64579869     0.64800
H2522       H  0.42465342  0.26979455  0.68223310     0.12700
N2523       N  0.43821802  0.32494186  0.76428453     0.61400
H2524       H  0.43537230  0.36700670  0.72547888     0.08800
O2525       O  0.41994713  0.37701948  0.57666217    -0.40000
O2526       O  0.45998263  0.39924461  0.58513385    -0.39200
O2527       O  0.39697160  0.41015664  0.72689736    -0.39200
O2528       O  0.36877245  0.37760442  0.70812026    -0.36900
O2529       O  0.41799887  0.31764498  0.78105312    -0.37800
O2530       O  0.45831156  0.34042539  0.77405181    -0.34000
O2531       O  0.42524023  0.30049318  0.62675844    -0.35400
O2532       O  0.38270647  0.31430816  0.64090657    -0.39700
C2533       C  0.33217433  0.47001694  0.66074579    -0.13300
C2534       C  0.34790478  0.47743373  0.68601539     0.17000
C2535       C  0.37736902  0.48543946  0.68139335     0.03300
C2536       C  0.39036858  0.48104189  0.65368206    -0.11900
C2537       C  0.37555870  0.46576276  0.63172175    -0.02900
C2538       C  0.34520180  0.46702350  0.63338744     0.02600
C2539       C  0.33019448  0.48095574  0.71399753     0.09400
N2540       N  0.39608383  0.49256217  0.70493666     0.65800
H2541       H  0.41350359  0.48315353  0.65195059     0.18700
N2542       N  0.32752771  0.46479426  0.60775656     0.76200
H2543       H  0.30897421  0.46859488  0.66183832     0.10200
C2544       C  0.33190631  0.50502337  0.73319390     0.03900
C2545       C  0.30836226  0.51229895  0.75102982    -0.04800
C2546       C  0.28251391  0.49664297  0.75052204    -0.23200
C2547       C  0.28264912  0.46995803  0.73576643     0.13100
C2548       C  0.30629807  0.46232055  0.71812307    -0.12400
N2549       N  0.35671442  0.52297695  0.73499268     0.64800
H2550       H  0.30980744  0.53148087  0.76437949     0.12700
N2551       N  0.25843522  0.45101779  0.73712569     0.61400
H2552       H  0.30487929  0.44250283  0.70570889     0.08800
O2553       O  0.30164834  0.45686463  0.60969916    -0.40000
O2554       O  0.33666594  0.47410428  0.58363819    -0.39200
O2555       O  0.40083509  0.47406338  0.72462870    -0.39200
O2556       O  0.41256689  0.51412848  0.70262612    -0.36900
O2557       O  0.24064031  0.45065142  0.71639913    -0.37800
O2558       O  0.25837234  0.43062398  0.75546348    -0.34000
O2559       O  0.37287671  0.52052452  0.75696012    -0.35400
O2560       O  0.35781907  0.54584903  0.72000398    -0.39700
C2561       C  0.34447101  0.39022320  0.56406824    -0.13300
C2562       C  0.32676908  0.37809189  0.58562507     0.17000
C2563       C  0.33116490  0.38561701  0.61452275     0.03300
C2564       C  0.35189005  0.40586966  0.62149011    -0.11900
C2565       C  0.36911721  0.42035044  0.60033507    -0.02900
C2566       C  0.36500328  0.41181391  0.57078432     0.02600
C2567       C  0.30366514  0.35736274  0.57849190     0.09400
N2568       N  0.31473272  0.37258897  0.63735199     0.65800
H2569       H  0.35346629  0.41104308  0.64425414     0.18700
N2570       N  0.38063748  0.42459331  0.54723156     0.76200
H2571       H  0.34172427  0.38346082  0.54172536     0.10200
C2572       C  0.27544693  0.36679597  0.57241642     0.03900
C2573       C  0.25392306  0.34647820  0.56686429    -0.04800
C2574       C  0.25972430  0.31677022  0.56815331    -0.23200
C2575       C  0.28734659  0.30715082  0.57701492     0.13100
C2576       C  0.30917996  0.32770749  0.58139774    -0.12400
N2577       N  0.26810663  0.39682769  0.57243797     0.64800
H2578       H  0.23274744  0.35389965  0.56033909     0.12700
N2579       N  0.29367507  0.27688701  0.58118004     0.61400
H2580       H  0.33053991  0.32067746  0.58769776     0.08800
O2581       O  0.37286739  0.44900839  0.53773105    -0.40000
O2582       O  0.39577263  0.40868723  0.53107626    -0.39200
O2583       O  0.32470175  0.35085369  0.65065826    -0.39200
O2584       O  0.29341859  0.38586800  0.64777063    -0.36900
O2585       O  0.31934697  0.26800667  0.58044722    -0.37800
O2586       O  0.27437090  0.25971376  0.58974903    -0.34000
O2587       O  0.25677425  0.40795047  0.55008189    -0.35400
O2588       O  0.26563272  0.40965661  0.59645571    -0.39700
C2589       C  0.62583398  0.46538224  0.38628139    -0.13300
C2590       C  0.60801218  0.46800228  0.36155851     0.17000
C2591       C  0.57805867  0.46949500  0.36676219     0.03300
C2592       C  0.56764080  0.46991128  0.39557137    -0.11900
C2593       C  0.58461596  0.45960456  0.41919763    -0.02900
C2594       C  0.61489845  0.46043657  0.41445092     0.02600
C2595       C  0.62267549  0.47091375  0.33218077     0.09400
N2596       N  0.55749449  0.46878450  0.34368378     0.65800
H2597       H  0.54456088  0.47139870  0.39841321     0.18700
N2598       N  0.63547258  0.45812083  0.43726448     0.76200
H2599       H  0.64895017  0.46668588  0.38384351     0.10200
C2600       C  0.61644596  0.49286675  0.31118884     0.03900
C2601       C  0.63741606  0.50090539  0.29074044    -0.04800
C2602       C  0.66473003  0.48818391  0.29066746    -0.23200
C2603       C  0.66918407  0.46331956  0.30782502     0.13100
C2604       C  0.64809187  0.45466223  0.32787080    -0.12400
N2605       N  0.58956347  0.50771753  0.30976038     0.64800
H2606       H  0.63293621  0.51867406  0.27595455     0.12700
N2607       N  0.69589936  0.44805995  0.30700104     0.61400
H2608       H  0.65294280  0.43658446  0.34213498     0.08800
O2609       O  0.64080774  0.48035341  0.45215250    -0.40000
O2610       O  0.65423305  0.43841906  0.43590178    -0.39200
O2611       O  0.55641300  0.44678115  0.32772138    -0.39200
O2612       O  0.53643318  0.48605418  0.34374946    -0.36900
O2613       O  0.71664888  0.45642742  0.32251600    -0.37800
O2614       O  0.69710818  0.42363693  0.29493450    -0.34000
O2615       O  0.58919518  0.53441648  0.31518751    -0.35400
O2616       O  0.57076609  0.49799364  0.29257832    -0.39700
C2617       C  0.59779974  0.37217193  0.47982671    -0.13300
C2618       C  0.62431012  0.38257422  0.48978082     0.17000
C2619       C  0.62672982  0.41305633  0.49361002     0.03300
C2620       C  0.60560782  0.43163964  0.48168104    -0.11900
C2621       C  0.58349775  0.42054767  0.46432986    -0.02900
C2622       C  0.57654058  0.39083344  0.46946367     0.02600
C2623       C  0.64895874  0.36176967  0.49421153     0.09400
N2624       N  0.65006029  0.42560432  0.50949410     0.65800
H2625       H  0.60753699  0.45473808  0.48441169     0.18700
N2626       N  0.54881708  0.37882508  0.46277594     0.76200
H2627       H  0.59386670  0.34943342  0.47733973     0.10200
C2628       C  0.64534086  0.33285653  0.50458242     0.03900
C2629       C  0.66921991  0.31484671  0.50796879    -0.04800
C2630       C  0.69701185  0.32452988  0.50197232    -0.23200
C2631       C  0.70059592  0.35148457  0.48823609     0.13100
C2632       C  0.67665206  0.36976156  0.48445931    -0.12400
N2633       N  0.61796145  0.32081828  0.51195165     0.64800
H2634       H  0.66625178  0.29364977  0.51770685     0.12700
N2635       N  0.72808967  0.36017992  0.47738696     0.61400
H2636       H  0.67969125  0.38990187  0.47290019     0.08800
O2637       O  0.54688909  0.35466327  0.45021892    -0.40000
O2638       O  0.52642254  0.39024757  0.47306502    -0.39200
O2639       O  0.67082922  0.43658223  0.49573399    -0.39200
O2640       O  0.64557558  0.43393026  0.53516777    -0.36900
O2641       O  0.73865342  0.38412156  0.48490738    -0.37800
O2642       O  0.73871532  0.34705620  0.45591443    -0.34000
O2643       O  0.60865954  0.29954424  0.49763784    -0.35400
O2644       O  0.60656016  0.32661103  0.53607538    -0.39700
C2645       C  0.56794671  0.38170870  0.37765061    -0.13300
C2646       C  0.53921831  0.38087714  0.36996172     0.17000
C2647       C  0.51970193  0.39722746  0.38659117     0.03300
C2648       C  0.52881061  0.41488284  0.40939560    -0.11900
C2649       C  0.55758894  0.41630303  0.41744885    -0.02900
C2650       C  0.57758727  0.39869118  0.40083398     0.02600
C2651       C  0.52963266  0.36119720  0.34616266     0.09400
N2652       N  0.48989674  0.39457576  0.38226504     0.65800
H2653       H  0.51293619  0.42751555  0.42077511     0.18700
N2654       N  0.60792563  0.39744733  0.40625512     0.76200
H2655       H  0.58320090  0.36837995  0.36596655     0.10200
C2656       C  0.53549674  0.36653825  0.31633342     0.03900
C2657       C  0.52259808  0.34922266  0.29502429    -0.04800
C2658       C  0.50408780  0.32665414  0.30266973    -0.23200
C2659       C  0.50014393  0.31981031  0.33227046     0.13100
C2660       C  0.51347042  0.33667196  0.35359129    -0.12400
N2661       N  0.55416759  0.38930304  0.30698692     0.64800
H2662       H  0.52635434  0.35394067  0.27222247     0.12700
N2663       N  0.48279389  0.29581768  0.34104832     0.61400
H2664       H  0.51083534  0.33076322  0.37626075     0.08800
O2665       O  0.62445585  0.40492478  0.38583263    -0.40000
O2666       O  0.61708138  0.37812029  0.42328093    -0.39200
O2667       O  0.47489526  0.41731254  0.38268958    -0.39200
O2668       O  0.47872941  0.37075270  0.38914162    -0.36900
O2669       O  0.46351357  0.29933946  0.36000530    -0.37800
O2670       O  0.49044940  0.27051192  0.33442308    -0.34000
O2671       O  0.58059250  0.38784836  0.31306858    -0.35400
O2672       O  0.54621305  0.40567230  0.28642371    -0.39700
C2673       C  0.45223651  0.68085387  0.31669608    -0.13300
C2674       C  0.44278238  0.68893903  0.34461624     0.17000
C2675       C  0.43908474  0.71865460  0.35062875     0.03300
C2676       C  0.44603313  0.73946026  0.32960487    -0.11900
C2677       C  0.45697861  0.73137207  0.30253639    -0.02900
C2678       C  0.45862100  0.70183628  0.29549383     0.02600
C2679       C  0.43430094  0.66644083  0.36637565     0.09400
N2680       N  0.42760356  0.72811283  0.37775315     0.65800
H2681       H  0.44384986  0.76215798  0.33480561     0.18700
N2682       N  0.46518888  0.69307522  0.26646136     0.76200
H2683       H  0.45441902  0.65820162  0.31123926     0.10200
C2684       C  0.41377197  0.64552550  0.35949280     0.03900
C2685       C  0.40218850  0.62813199  0.38131369    -0.04800
C2686       C  0.40962049  0.63068234  0.41136579    -0.23200
C2687       C  0.43346510  0.64973991  0.41726640     0.13100
C2688       C  0.44504223  0.66711391  0.39486036    -0.12400
N2689       N  0.40181845  0.64366678  0.33085846     0.64800
H2690       H  0.38499204  0.61487850  0.37357309     0.12700
N2691       N  0.44406703  0.65522256  0.44598537     0.61400
H2692       H  0.46156471  0.68266187  0.40029226     0.08800
O2693       O  0.49028199  0.68522334  0.25977387    -0.40000
O2694       O  0.44543449  0.69208246  0.24765391    -0.39200
O2695       O  0.44440178  0.73755113  0.39707368    -0.39200
O2696       O  0.40108787  0.73352214  0.37953640    -0.36900
O2697       O  0.46969074  0.64831558  0.45184837    -0.37800
O2698       O  0.43214886  0.67432457  0.46134613    -0.34000
O2699       O  0.40663259  0.62151262  0.31567995    -0.35400
O2700       O  0.38200985  0.66084825  0.32340124    -0.39700
C2701       C  0.33472120  0.66369019  0.48280937    -0.13300
C2702       C  0.33542776  0.69086671  0.46879281     0.17000
C2703       C  0.35741605  0.69593692  0.44865282     0.03300
C2704       C  0.37535145  0.67326982  0.43987132    -0.11900
C2705       C  0.37397448  0.64476792  0.45198837    -0.02900
C2706       C  0.35415504  0.64110819  0.47545617     0.02600
C2707       C  0.31245110  0.71329515  0.47361783     0.09400
N2708       N  0.35964165  0.72320710  0.43404059     0.65800
H2709       H  0.38831402  0.67837619  0.42120311     0.18700
N2710       N  0.35027107  0.61346575  0.48897970     0.76200
H2711       H  0.31798427  0.65937734  0.49856303     0.10200
C2712       C  0.28345226  0.70838529  0.46560751     0.03900
C2713       C  0.26237464  0.72932004  0.47100716    -0.04800
C2714       C  0.26938140  0.75566008  0.48388351    -0.23200
C2715       C  0.29856425  0.76235650  0.48838758     0.13100
C2716       C  0.31980237  0.74104323  0.48389826    -0.12400
N2717       N  0.27473195  0.68246824  0.45156806     0.64800
H2718       H  0.24001758  0.72417043  0.46684016     0.12700
N2719       N  0.30680571  0.79095805  0.49657277     0.61400
H2720       H  0.34205317  0.74612589  0.48856731     0.08800
O2721       O  0.36360907  0.60762122  0.51216668    -0.40000
O2722       O  0.32933815  0.59778795  0.48161143    -0.39200
O2723       O  0.38045057  0.73976177  0.43963898    -0.39200
O2724       O  0.34315116  0.72899113  0.41297662    -0.36900
O2725       O  0.30959953  0.81017345  0.47721019    -0.37800
O2726       O  0.30796385  0.79797033  0.52301590    -0.34000
O2727       O  0.26282436  0.66298349  0.46657275    -0.35400
O2728       O  0.27020997  0.68321911  0.42449415    -0.39700
C2729       C  0.32585842  0.57169011  0.31641261    -0.13300
C2730       C  0.31475344  0.56848897  0.34475938     0.17000
C2731       C  0.28491373  0.56293761  0.34770033     0.03300
C2732       C  0.26823630  0.55665557  0.32322243    -0.11900
C2733       C  0.28019723  0.55638429  0.29529112    -0.02900
C2734       C  0.30873843  0.56606196  0.29166971     0.02600
C2735       C  0.33229823  0.57723810  0.37063692     0.09400
N2736       N  0.27082898  0.56473217  0.37527619     0.65800
H2737       H  0.24588703  0.55070547  0.32616920     0.18700
N2738       N  0.31996646  0.57206777  0.26329373     0.76200
H2739       H  0.34761990  0.57940729  0.31341316     0.10200
C2740       C  0.35745475  0.56316913  0.38073289     0.03900
C2741       C  0.37232255  0.57390346  0.40553094    -0.04800
C2742       C  0.36413360  0.60012729  0.41955704    -0.23200
C2743       C  0.33760839  0.61259558  0.40919926     0.13100
C2744       C  0.32287282  0.60125218  0.38554984    -0.12400
N2745       N  0.37011820  0.54027760  0.36430551     0.64800
H2746       H  0.39275310  0.56402475  0.41098666     0.12700
N2747       N  0.32382728  0.63680555  0.42178365     0.61400
H2748       H  0.30378362  0.61249809  0.37797108     0.08800
O2749       O  0.32715276  0.59759435  0.25677328    -0.40000
O2750       O  0.31997550  0.55290699  0.24384753    -0.39200
O2751       O  0.25430728  0.58580853  0.38028659    -0.39200
O2752       O  0.26963575  0.54270605  0.39145701    -0.36900
O2753       O  0.32348042  0.66011668  0.40737914    -0.37800
O2754       O  0.30295158  0.63141267  0.43838111    -0.34000
O2755       O  0.38306671  0.54629240  0.34095485    -0.35400
O2756       O  0.37498679  0.51627243  0.37643044    -0.39700
C2757       C  0.60831101  0.66853119  0.48653752    -0.13300
C2758       C  0.63519301  0.66251561  0.47392397     0.17000
C2759       C  0.63906357  0.63515831  0.46107241     0.03300
C2760       C  0.61517423  0.61759516  0.45625799    -0.11900
C2761       C  0.58691452  0.62822759  0.46077001    -0.02900
C2762       C  0.58448837  0.65023567  0.48199762     0.02600
C2763       C  0.65904664  0.68391989  0.47598191     0.09400
N2764       N  0.66624473  0.62609367  0.44984855     0.65800
H2765       H  0.61882650  0.59732921  0.44517616     0.18700
N2766       N  0.55796663  0.65584051  0.49694372     0.76200
H2767       H  0.60594232  0.68725534  0.50010585     0.10200
C2768       C  0.65544008  0.71322410  0.46761767     0.03900
C2769       C  0.67695596  0.73342789  0.47418004    -0.04800
C2770       C  0.70305066  0.72439692  0.48652423    -0.23200
C2771       C  0.70877109  0.69451031  0.48940506     0.13100
C2772       C  0.68598653  0.67492985  0.48639534    -0.12400
N2773       N  0.63113601  0.72239971  0.45082557     0.64800
H2774       H  0.67293065  0.75624881  0.47056749     0.12700
N2775       N  0.73735546  0.68399424  0.49563982     0.61400
H2776       H  0.68930423  0.65254414  0.49238656     0.08800
O2777       O  0.55085654  0.68148966  0.50295944    -0.40000
O2778       O  0.54541310  0.63537586  0.50992060    -0.39200
O2779       O  0.67910679  0.60498887  0.46155518    -0.39200
O2780       O  0.67425965  0.63497781  0.42516849    -0.36900
O2781       O  0.74146339  0.65754708  0.50122259    -0.37800
O2782       O  0.75895005  0.69971989  0.49049923    -0.34000
O2783       O  0.61232930  0.73835999  0.46226487    -0.35400
O2784       O  0.63295429  0.72176732  0.42345668    -0.39700
C2785       C  0.51461608  0.65700485  0.38374998    -0.13300
C2786       C  0.52555983  0.68513750  0.38507386     0.17000
C2787       C  0.54040983  0.69355629  0.41036529     0.03300
C2788       C  0.54831742  0.67270705  0.43091346    -0.11900
C2789       C  0.54246070  0.64293932  0.42688044    -0.02900
C2790       C  0.52235523  0.63603328  0.40444647     0.02600
C2791       C  0.52264716  0.70494796  0.35964240     0.09400
N2792       N  0.55162172  0.72220898  0.41364511     0.65800
H2793       H  0.56298511  0.68055191  0.44681703     0.18700
N2794       N  0.51241914  0.60708607  0.40002191     0.76200
H2795       H  0.50079857  0.65087209  0.36586118     0.10200
C2796       C  0.53072250  0.69642123  0.33114687     0.03900
C2797       C  0.52749874  0.71582979  0.30793081    -0.04800
C2798       C  0.51678946  0.74363381  0.31255861    -0.23200
C2799       C  0.51231618  0.75330949  0.34111550     0.13100
C2800       C  0.51365587  0.73359625  0.36416228    -0.12400
N2801       N  0.54183380  0.66820107  0.32511834     0.64800
H2802       H  0.53189664  0.70867447  0.28599879     0.12700
N2803       N  0.50602881  0.78306882  0.34672926     0.61400
H2804       H  0.50784015  0.74084743  0.38572866     0.08800
O2805       O  0.52063410  0.59348113  0.37778057    -0.40000
O2806       O  0.48988143  0.59885871  0.41284446    -0.39200
O2807       O  0.54511718  0.73679919  0.43582718    -0.39200
O2808       O  0.57123455  0.73112778  0.39692367    -0.36900
O2809       O  0.48389525  0.78992329  0.36096473    -0.37800
O2810       O  0.52527493  0.80179718  0.34235243    -0.34000
O2811       O  0.52471181  0.64875056  0.31684598    -0.35400
O2812       O  0.56816896  0.66556988  0.31912315    -0.39700
C2813       C  0.65785090  0.55120059  0.35503872    -0.13300
C2814       C  0.63740515  0.57176916  0.34570178     0.17000
C2815       C  0.63936682  0.58166267  0.31647577     0.03300
C2816       C  0.65994214  0.56981353  0.29726215    -0.11900
C2817       C  0.67949080  0.54835659  0.30632897    -0.02900
C2818       C  0.67899643  0.53994417  0.33602390     0.02600
C2819       C  0.61565137  0.58390290  0.36715710     0.09400
N2820       N  0.61978955  0.60288662  0.30544396     0.65800
H2821       H  0.65979589  0.57656416  0.27465804     0.18700
N2822       N  0.70050930  0.52082494  0.34745654     0.76200
H2823       H  0.65809133  0.54455260  0.37764645     0.10200
C2824       C  0.59727602  0.56643908  0.38415300     0.03900
C2825       C  0.57869599  0.57775358  0.40533683    -0.04800
C2826       C  0.57790244  0.60711594  0.41153005    -0.23200
C2827       C  0.59548765  0.62540181  0.39304235     0.13100
C2828       C  0.61375684  0.61359037  0.37169147    -0.12400
N2829       N  0.59624462  0.53650535  0.38023398     0.64800
H2830       H  0.56557209  0.56281999  0.41761520     0.12700
N2831       N  0.59655163  0.65609458  0.39594991     0.61400
H2832       H  0.62758122  0.62796621  0.35940593     0.08800
O2833       O  0.69356646  0.50103805  0.36508501    -0.40000
O2834       O  0.72674085  0.52699521  0.34421230    -0.39200
O2835       O  0.62857278  0.62831712  0.30092149    -0.39200
O2836       O  0.59639021  0.59486072  0.29418835    -0.36900
O2837       O  0.58859605  0.67140691  0.37465945    -0.37800
O2838       O  0.61434243  0.66683529  0.41344321    -0.34000
O2839       O  0.61059712  0.52150820  0.39796205    -0.35400
O2840       O  0.57278785  0.52685533  0.37071285    -0.39700
C2841       C  0.31650434  0.48733449  0.32774998    -0.13300
C2842       C  0.29995358  0.48127861  0.35245518     0.17000
C2843       C  0.26984021  0.47984059  0.34992808     0.03300
C2844       C  0.25666501  0.48711865  0.32336916    -0.11900
C2845       C  0.27329764  0.49468861  0.29896389    -0.02900
C2846       C  0.30356723  0.49282769  0.30078533     0.02600
C2847       C  0.31533768  0.47041403  0.37836762     0.09400
N2848       N  0.25260816  0.46998233  0.37371677     0.65800
H2849       H  0.23342024  0.48810902  0.32211793     0.18700
N2850       N  0.32125911  0.49568292  0.27536140     0.76200
H2851       H  0.33974501  0.48616597  0.32923020     0.10200
C2852       C  0.32635403  0.44251364  0.37766069     0.03900
C2853       C  0.34708093  0.43442475  0.39758611    -0.04800
C2854       C  0.35785416  0.45269765  0.41983202    -0.23200
C2855       C  0.34322945  0.47980483  0.42280654     0.13100
C2856       C  0.32300856  0.48861450  0.40143094    -0.12400
N2857       N  0.31825189  0.42261413  0.35534694     0.64800
H2858       H  0.35684469  0.41400727  0.39365043     0.12700
N2859       N  0.34626438  0.49796312  0.44755719     0.61400
H2860       H  0.31368752  0.51001939  0.40263000     0.08800
O2861       O  0.31355781  0.48397619  0.25185485    -0.40000
O2862       O  0.34650471  0.50547591  0.27748519    -0.39200
O2863       O  0.25099616  0.48461798  0.39674872    -0.39200
O2864       O  0.24140774  0.44516693  0.37284183    -0.36900
O2865       O  0.35633434  0.52305504  0.44410128    -0.37800
O2866       O  0.33089201  0.49296088  0.46960538    -0.34000
O2867       O  0.33399294  0.41978000  0.33320499    -0.35400
O2868       O  0.29925976  0.40387020  0.36064992    -0.39700
C2869       C  0.30823969  0.33307715  0.49911025    -0.13300
C2870       C  0.29788592  0.36038819  0.49013463     0.17000
C2871       C  0.26783515  0.36442106  0.48785033     0.03300
C2872       C  0.24919060  0.34222969  0.49694090    -0.11900
C2873       C  0.25981653  0.31513668  0.50576783    -0.02900
C2874       C  0.28966117  0.30995945  0.50510913     0.02600
C2875       C  0.31949670  0.38101651  0.47790176     0.09400
N2876       N  0.25585471  0.38987434  0.47480550     0.65800
H2877       H  0.22620352  0.34606938  0.49711807     0.18700
N2878       N  0.30127205  0.28145039  0.51016279     0.76200
H2879       H  0.33123396  0.32930106  0.49966766     0.10200
C2880       C  0.32491629  0.40932758  0.48771109     0.03900
C2881       C  0.34907602  0.42453418  0.47718382    -0.04800
C2882       C  0.36701259  0.41416520  0.45448649    -0.23200
C2883       C  0.35976300  0.38524602  0.44415708     0.13100
C2884       C  0.33713723  0.36988193  0.45647843    -0.12400
N2885       N  0.30474378  0.42446731  0.50551914     0.64800
H2886       H  0.35206868  0.44626909  0.48498287     0.12700
N2887       N  0.37418211  0.36909146  0.42201158     0.61400
H2888       H  0.33286231  0.34826619  0.44839810     0.08800
O2889       O  0.32725184  0.27828512  0.51751629    -0.40000
O2890       O  0.28699117  0.25933714  0.50318092    -0.39200
O2891       O  0.26259111  0.39660572  0.44906008    -0.39200
O2892       O  0.23499033  0.40256087  0.48682138    -0.36900
O2893       O  0.39080100  0.34910511  0.43044256    -0.37800
O2894       O  0.36119952  0.36510541  0.39821050    -0.34000
O2895       O  0.31185544  0.43129059  0.53103355    -0.35400
O2896       O  0.28561141  0.43938640  0.49302253    -0.39700
C2897       C  0.42331484  0.38670113  0.38876548    -0.13300
C2898       C  0.42020825  0.39993765  0.36116099     0.17000
C2899       C  0.41430274  0.43006432  0.36086517     0.03300
C2900       C  0.40822606  0.44437606  0.38722645    -0.11900
C2901       C  0.40613130  0.42907641  0.41396633    -0.02900
C2902       C  0.42053064  0.40248313  0.41490839     0.02600
C2903       C  0.42598055  0.38184355  0.33432416     0.09400
N2904       N  0.41158672  0.44608781  0.33432016     0.65800
H2905       H  0.40111356  0.46663570  0.38615125     0.18700
N2906       N  0.43448516  0.39250085  0.44105812     0.76200
H2907       H  0.42910476  0.36406817  0.39009529     0.10200
C2908       C  0.44657129  0.38913264  0.31261399     0.03900
C2909       C  0.45449034  0.36867596  0.29148321    -0.04800
C2910       C  0.44314294  0.34054810  0.29130165    -0.23200
C2911       C  0.42044691  0.33431637  0.31063270     0.13100
C2912       C  0.41240776  0.35462226  0.33200202    -0.12400
N2913       N  0.46109428  0.41635874  0.31211747     0.64800
H2914       H  0.47108799  0.37434800  0.27596869     0.12700
N2915       N  0.40563817  0.30732203  0.30917602     0.61400
H2916       H  0.39588059  0.34870522  0.34750703     0.08800
O2917       O  0.46145946  0.39452624  0.44297185    -0.40000
O2918       O  0.42038555  0.38678295  0.46377392    -0.39200
O2919       O  0.39320238  0.43861747  0.31561651    -0.39200
O2920       O  0.42364584  0.47043591  0.33193554    -0.36900
O2921       O  0.41124512  0.28761122  0.32737603    -0.37800
O2922       O  0.38344724  0.30530191  0.29350291    -0.34000
O2923       O  0.45568086  0.43362110  0.29147610    -0.35400
O2924       O  0.48508328  0.41840737  0.32471975    -0.39700
C2925       C  0.59015032  0.46480600  0.68544935    -0.13300
C2926       C  0.61149735  0.48357946  0.67579894     0.17000
C2927       C  0.61008855  0.49351242  0.64663149     0.03300
C2928       C  0.58783563  0.48372263  0.62828634    -0.11900
C2929       C  0.56902584  0.46072997  0.63628924    -0.02900
C2930       C  0.56990555  0.45260838  0.66664628     0.02600
C2931       C  0.63575794  0.48977733  0.69638731     0.09400
N2932       N  0.63267009  0.51042114  0.63375469     0.65800
H2933       H  0.58982471  0.48997699  0.60579155     0.18700
N2934       N  0.55417024  0.42918257  0.67904108     0.76200
H2935       H  0.59110050  0.45672436  0.70762131     0.10200
C2936       C  0.63079869  0.49946396  0.72525876     0.03900
C2937       C  0.65415086  0.50285459  0.74443216    -0.04800
C2938       C  0.68251881  0.49741952  0.73562598    -0.23200
C2939       C  0.68705008  0.48451410  0.70824951     0.13100
C2940       C  0.66367298  0.48051668  0.68924826    -0.12400
N2941       N  0.60235215  0.50564902  0.73576632     0.64800
H2942       H  0.65036945  0.51210170  0.76571316     0.12700
N2943       N  0.71500753  0.47475438  0.69962927     0.61400
H2944       H  0.66725224  0.46877455  0.66931096     0.08800
O2945       O  0.53427422  0.43513483  0.69668403    -0.40000
O2946       O  0.56695301  0.40524642  0.68193756    -0.39200
O2947       O  0.65637360  0.49833881  0.62833930    -0.39200
O2948       O  0.62602388  0.53244447  0.61890745    -0.36900
O2949       O  0.72880971  0.45767454  0.71597191    -0.37800
O2950       O  0.72325707  0.47831029  0.67370214    -0.34000
O2951       O  0.59521181  0.49802199  0.76115461    -0.35400
O2952       O  0.58441733  0.51908921  0.72013177    -0.39700
C2953       C  0.50041315  0.39502067  0.65289424    -0.13300
C2954       C  0.51418926  0.36793042  0.65538091     0.17000
C2955       C  0.53909618  0.36321497  0.63899458     0.03300
C2956       C  0.55140852  0.38571888  0.62318451    -0.11900
C2957       C  0.53987605  0.41429624  0.62247273    -0.02900
C2958       C  0.51251964  0.41793241  0.63622119     0.02600
C2959       C  0.50416382  0.34459793  0.67572795     0.09400
N2960       N  0.55421559  0.33627160  0.64063645     0.65800
H2961       H  0.57186736  0.38017698  0.61395660     0.18700
N2962       N  0.49801308  0.44529254  0.63593322     0.76200
H2963       H  0.48082397  0.39890111  0.66494296     0.10200
C2964       C  0.50682831  0.34742736  0.70622943     0.03900
C2965       C  0.50297991  0.32325474  0.72454441    -0.04800
C2966       C  0.49573822  0.29610876  0.71322879    -0.23200
C2967       C  0.49438890  0.29290839  0.68272609     0.13100
C2968       C  0.49787310  0.31709908  0.66441797    -0.12400
N2969       N  0.51338853  0.37469553  0.71905483     0.64800
H2970       H  0.50435229  0.32599276  0.74787057     0.12700
N2971       N  0.49085305  0.26490621  0.67008985     0.61400
H2972       H  0.49703120  0.31415206  0.64105890     0.08800
O2973       O  0.50455424  0.46438763  0.65427632    -0.40000
O2974       O  0.47473278  0.44784074  0.62211148    -0.39200
O2975       O  0.55569178  0.32035509  0.61846134    -0.39200
O2976       O  0.57004645  0.33090614  0.66231964    -0.36900
O2977       O  0.47178725  0.26085376  0.65099691    -0.37800
O2978       O  0.51032778  0.24617546  0.67357819    -0.34000
O2979       O  0.49341680  0.39276443  0.72291580    -0.35400
O2980       O  0.53680764  0.37778783  0.73256310    -0.39700
C2981       C  0.60963440  0.39072480  0.56522932    -0.13300
C2982       C  0.63398016  0.38877629  0.58333758     0.17000
C2983       C  0.63584544  0.40747225  0.60693935     0.03300
C2984       C  0.61270966  0.42526343  0.61395010    -0.11900
C2985       C  0.58704769  0.42722057  0.59682566    -0.02900
C2986       C  0.58673466  0.41004286  0.57108488     0.02600
C2987       C  0.65777957  0.36779239  0.57756745     0.09400
N2988       N  0.66071720  0.40751332  0.62524854     0.65800
H2989       H  0.61506156  0.43571845  0.63461297     0.18700
N2990       N  0.56181889  0.40875981  0.55290161     0.76200
H2991       H  0.60826829  0.37725816  0.54630508     0.10200
C2992       C  0.65568892  0.33821114  0.58511592     0.03900
C2993       C  0.67788153  0.31896274  0.57729187    -0.04800
C2994       C  0.70322856  0.32904131  0.56407572    -0.23200
C2995       C  0.70715458  0.35934523  0.56094059     0.13100
C2996       C  0.68390638  0.37811069  0.56653059    -0.12400
N2997       N  0.63190612  0.32776140  0.60188020     0.64800
H2998       H  0.67502977  0.29596123  0.58079105     0.12700
N2999       N  0.73449084  0.37128882  0.55230655     0.61400
H3000       H  0.68628302  0.40110935  0.56277689     0.08800
O3001       O  0.55926863  0.42637715  0.53202496    -0.40000
O3002       O  0.54593669  0.38666028  0.55371895    -0.39200
O3003       O  0.68032410  0.42581901  0.62074415    -0.39200
O3004       O  0.66056413  0.39329351  0.64873475    -0.36900
O3005       O  0.73649193  0.39768205  0.54542585    -0.37800
O3006       O  0.75732260  0.35687540  0.55576681    -0.34000
O3007       O  0.61899583  0.30500806  0.59434405    -0.35400
O3008       O  0.62777588  0.33770936  0.62706029    -0.39700
C3009       C  0.43436355  0.65579468  0.66216918    -0.13300
C3010       C  0.42604400  0.68512040  0.66111926     0.17000
C3011       C  0.41302718  0.69486878  0.63497719     0.03300
C3012       C  0.40416016  0.67493862  0.61386279    -0.11900
C3013       C  0.40741510  0.64461857  0.61735100    -0.02900
C3014       C  0.42555711  0.63578416  0.64077685     0.02600
C3015       C  0.42981499  0.70453357  0.68747291     0.09400
N3016       N  0.40513388  0.72448450  0.63053903     0.65800
H3017       H  0.39059380  0.68418741  0.59756301     0.18700
N3018       N  0.43334484  0.60608596  0.64460084     0.76200
H3019       H  0.44722035  0.64799139  0.68019079     0.10200
C3020       C  0.42461035  0.69452048  0.71639795     0.03900
C3021       C  0.42950369  0.71275065  0.74037847    -0.04800
C3022       C  0.43796538  0.74148028  0.73642103    -0.23200
C3023       C  0.43902106  0.75266270  0.70796355     0.13100
C3024       C  0.43725959  0.73398601  0.68403802    -0.12400
N3025       N  0.41429182  0.66596659  0.72210838     0.64800
H3026       H  0.42768146  0.70410565  0.76222354     0.12700
N3027       N  0.44125890  0.78321479  0.70334283     0.61400
H3028       H  0.44185823  0.74290948  0.66281270     0.08800
O3029       O  0.42158848  0.59142582  0.66450565    -0.40000
O3030       O  0.45629602  0.59692182  0.63327680    -0.39200
O3031       O  0.41527622  0.73819151  0.60907500    -0.39200
O3032       O  0.38466956  0.73530354  0.64484744    -0.36900
O3033       O  0.41964253  0.79912826  0.70771094    -0.37800
O3034       O  0.46469077  0.79449965  0.69556430    -0.34000
O3035       O  0.43094520  0.64774042  0.73380783    -0.35400
O3036       O  0.38753224  0.66172196  0.72320027    -0.39700
C3037       C  0.35059720  0.67700879  0.54942055    -0.13300
C3038       C  0.32186693  0.67383118  0.55866649     0.17000
C3039       C  0.31427040  0.64814231  0.57316343     0.03300
C3040       C  0.33554115  0.62833936  0.58104215    -0.11900
C3041       C  0.36517464  0.63539878  0.57909068    -0.02900
C3042       C  0.37207888  0.65696462  0.55800621     0.02600
C3043       C  0.29966419  0.69655520  0.55262316     0.09400
N3044       N  0.28575530  0.64371531  0.58392873     0.65800
H3045       H  0.32835254  0.60911313  0.59228307     0.18700
N3046       N  0.40074145  0.66030853  0.54698631     0.76200
H3047       H  0.35635329  0.69514149  0.53562510     0.10200
C3048       C  0.30341598  0.72541210  0.56163026     0.19500
C3049       C  0.28170711  0.74593917  0.55647332    -0.04800
C3050       C  0.25604751  0.73840489  0.54231719    -0.23200
C3051       C  0.25106718  0.70899919  0.53548509     0.13100
C3052       C  0.27334505  0.68873570  0.53977555    -0.12400
N3053       N  0.32903782  0.73413494  0.57633423     0.64800
H3054       H  0.28530022  0.76819429  0.56265444     0.12700
N3055       N  0.22389635  0.69955853  0.52375944     0.61400
H3056       H  0.27010532  0.66653342  0.53318558     0.08800
O3057       O  0.41252136  0.68488569  0.54724940    -0.40000
O3058       O  0.41081315  0.64119733  0.53036406    -0.39200
O3059       O  0.27136682  0.62221454  0.57548850    -0.39200
O3060       O  0.27704329  0.65822782  0.60538444    -0.36900
O3061       O  0.22195682  0.67556885  0.51091032    -0.37800
O3062       O  0.20108081  0.71317156  0.52950753    -0.34000
O3063       O  0.34786018  0.74858315  0.56292567    -0.35400
O3064       O  0.33091987  0.73107272  0.60354860    -0.39700
C3065       C  0.33014721  0.61911704  0.66527024    -0.13300
C3066       C  0.32328576  0.58996469  0.66750544     0.17000
C3067       C  0.33869665  0.57074852  0.64914915     0.03300
C3068       C  0.36110285  0.58060325  0.63081367    -0.11900
C3069       C  0.36781530  0.61016324  0.62790039    -0.02900
C3070       C  0.35145243  0.62944167  0.64632434     0.02600
C3071       C  0.30005395  0.58037490  0.68886316     0.09400
N3072       N  0.33137953  0.54098128  0.64809393     0.65800
H3073       H  0.37213433  0.56471504  0.61790693     0.18700
N3074       N  0.35462240  0.66014966  0.64570301     0.76200
H3075       H  0.31774013  0.63472051  0.67745009     0.10200
C3076       C  0.29974711  0.58969897  0.71829238     0.03900
C3077       C  0.28071367  0.57712634  0.73852941    -0.04800
C3078       C  0.26207663  0.55466284  0.73062755    -0.23200
C3079       C  0.26052604  0.54695633  0.70096188     0.13100
C3080       C  0.27842997  0.56071674  0.68035777    -0.12400
N3081       N  0.31914261  0.61136233  0.72844217     0.64800
H3082       H  0.28178359  0.58376202  0.76108725     0.12700
N3083       N  0.24145541  0.52466527  0.69149203     0.61400
H3084       H  0.27663392  0.55455463  0.65772009     0.08800
O3085       O  0.36195866  0.67272437  0.66884962    -0.40000
O3086       O  0.34105263  0.67453662  0.62680558    -0.39200
O3087       O  0.32735506  0.52884156  0.62391191    -0.39200
O3088       O  0.32491219  0.52799179  0.67117469    -0.36900
O3089       O  0.21469179  0.52914068  0.69137790    -0.37800
O3090       O  0.25141465  0.50268728  0.67879099    -0.34000
O3091       O  0.34319265  0.60396992  0.73878752    -0.35400
O3092       O  0.30981448  0.63656723  0.73306979    -0.39700
loop_ 
_geom_bond_atom_site_label_1 
_geom_bond_atom_site_label_2 
_geom_bond_distance 
_geom_bond_site_symmetry_2 
_ccdc_geom_bond_type 
C1           C10   1.587       .  S
C1         C3013   1.584       .  S
C1         C3041   1.581       .  S
C1         C3069   1.594       .  S
N2            N3   1.336       .  A
N2            N8   1.321       .  A
N2          Mn31   2.293       .  S
N3           C10   1.369       .  A
N4            N6   1.321       .  A
N4            N5   1.327       .  A
N4          Mn20   2.266       .  S
N5           C11   1.357       .  A
N6            N7   1.338       .  A
N6          Mn31   2.287       .  S
N7           C11   1.371       .  A
N8            N9   1.332       .  A
N8          Mn20   2.270       .  S
N9           C10   1.363       .  A
C11          C50   1.588       .  S
N12          N18   1.323       .  A
N12          N13   1.335       .  A
N12         Mn42   2.276       .  S
N13          C21   1.365       .  A
N14          N15   1.326       .  A
N14          N16   1.320       .  A
N14         Mn20   2.255       .  S
N15          C22   1.356       .  A
N16          N17   1.338       .  A
N16         Mn42   2.289       .  S
N17          C22   1.371       .  A
N18          N19   1.330       .  A
N18         Mn20   2.280       .  S
N19          C21   1.365       .  A
Mn20        Cl44   2.581       .  S
C21          C49   1.580       .  S
C22          C53   1.587       .  S
N23          N24   1.333       .  A
N23          N29   1.324       .  A
N23         Mn31   2.283       .  S
N24          C32   1.360       .  A
N25          N27   1.323       .  A
N25          N26   1.331       .  A
N25         Mn43   2.268       .  S
N26          C33   1.358       .  A
N27          N28   1.333       .  A
N27         Mn31   2.291       .  S
N28          C33   1.369       .  A
N29          N30   1.334       .  A
N29         Mn43   2.293       .  S
N30          C32   1.369       .  A
Mn31        Cl44   2.617       .  S
C32          C48   1.596       .  S
C33          C52   1.578       .  S
N34          N35   1.331       .  A
N34          N40   1.321       .  A
N34         Mn42   2.276       .  S
N35          C45   1.365       .  A
N36          N37   1.339       .  A
N36          N38   1.325       .  A
N36         Mn43   2.312       .  S
N37          C46   1.371       .  A
N38          N39   1.333       .  A
N38         Mn42   2.283       .  S
N39          C46   1.364       .  A
N40          N41   1.333       .  A
N40         Mn43   2.268       .  S
N41          C45   1.365       .  A
Mn42        Cl44   2.616       .  S
Mn43        Cl44   2.603       .  S
C45          C47   1.587       .  S
C46          C51   1.595       .  S
C47        C2929   1.588       .  S
C47        C2957   1.584       .  S
C47        C2985   1.590       .  S
C48        C2854   1.590       .  S
C48        C2882   1.593       .  S
C48        C2901   1.571       .  S
C49        C2761   1.572       .  S
C49        C2789   1.565       .  S
C49        C2826   1.585       .  S
C50        C2686   1.599       .  S
C50        C2705   1.588       .  S
C50        C2742   1.594       .  S
C51        C2593   1.581       .  S
C51        C2621   1.561       .  S
C51        C2649   1.575       .  S
C52        C2509   1.598       .  S
C52        C2537   1.587       .  S
C52        C2565   1.575       .  S
C53        C2425   1.594       .  S
C53        C2453   1.592       .  S
C53        C2481   1.581       .  S
C54          C55   1.420       .  A
C54          C59   1.407   1_554  A
C54        C2397   1.497   1_554  S
C55          C56   1.409       .  A
C55        C2341   1.488       .  S
C56          C57   1.405       .  A
C56          H61   1.083       .  S
C57          C58   1.417       .  A
C57        C2378   1.493       .  S
C58          C59   1.406   1_554  A
C58        C2322   1.484   1_554  S
C59          H60   1.084       .  S
C62          C63   1.421       .  A
C62          C67   1.402       .  A
C62        C2294   1.492       .  S
C63          C64   1.407       .  A
C63        C2229   1.487       .  S
C64          C65   1.404       .  A
C64          H69   1.083       .  S
C65          C66   1.418       .  A
C65        C2257   1.489       .  S
C66          C67   1.405       .  A
C66        C2210   1.483       .  S
C67          H68   1.084   1_545  S
C70          C71   1.423       .  A
C70          C75   1.404   1_655  A
C70        C2173   1.497       .  S
C71          C72   1.418       .  A
C71        C2117   1.502       .  S
C72          C73   1.413       .  A
C72          H77   1.083       .  S
C73          C74   1.420       .  A
C73        C2145   1.511       .  S
C74          C75   1.403   1_655  A
C74        C2089   1.482   1_655  S
C75          H76   1.084       .  S
C78          C79   1.423       .  A
C78          C83   1.419       .  A
C78        C2910   1.510       .  S
C79          C80   1.402       .  A
C79        C2658   1.483       .  S
C80          C81   1.397       .  A
C80          H85   1.084       .  S
C81          C82   1.419       .  A
C81        C2042   1.492       .  S
C82          C83   1.419       .  A
C82        C2061   1.498       .  S
C83          H84   1.082       .  S
C86          C87   1.415       .  A
C86          C91   1.403       .  A
C86        C2873   1.484       .  S
C87          C88   1.403       .  A
C87        C2574   1.482       .  S
C88          C89   1.401       .  A
C88          H93   1.084       .  S
C89          C90   1.417       .  A
C89        C1986   1.482       .  S
C90          C91   1.402       .  A
C90        C2005   1.484       .  S
C91          H92   1.084       .  S
C94          C95   1.419       .  A
C94          C99   1.403       .  A
C94        C2845   1.489       .  S
C95          C96   1.409       .  A
C95        C2733   1.494       .  S
C96          C97   1.410       .  A
C96         H101   1.084       .  S
C97          C98   1.421       .  A
C97        C1958   1.490       .  S
C98          C99   1.403       .  A
C98        C1921   1.491       .  S
C99         H100   1.084       .  S
C102        C103   1.419       .  A
C102        C107   1.405       .  A
C102       C1865   1.501       .  S
C103        C104   1.410   1_554  A
C103       C1893   1.497   1_554  S
C104        C105   1.411   1_556  A
C104        H109   1.080       .  S
C105        C106   1.427       .  A
C105       C1846   1.505   1_554  S
C106        C107   1.413       .  A
C106       C1809   1.501       .  S
C107        H108   1.080       .  S
C110        C111   1.417       .  A
C110        C115   1.399   1_554  A
C110       C1781   1.486   1_554  S
C111        C112   1.413       .  A
C111       C1753   1.490       .  S
C112        C113   1.412       .  A
C112        H117   1.083       .  S
C113        C114   1.422       .  A
C113       C1697   1.500       .  S
C114        C115   1.403   1_554  A
C114       C1725   1.488   1_554  S
C115        H116   1.084       .  S
C118        C119   1.422       .  A
C118        C123   1.413   1_655  A
C118       C1669   1.494       .  S
C119        C120   1.399       .  A
C119       C1650   1.486       .  S
C120        C121   1.400       .  A
C120        H125   1.084       .  S
C121        C122   1.417       .  A
C121       C1613   1.482       .  S
C122        C123   1.408   1_655  A
C122       C1594   1.494   1_655  S
C123        H124   1.083       .  S
C126        C127   1.427       .  A
C126        C131   1.417       .  A
C126       C2602   1.495       .  S
C127        C128   1.417       .  A
C127       C2817   1.519       .  S
C128        C129   1.417       .  A
C128        H133   1.083       .  S
C129        C130   1.419       .  A
C129       C1538   1.496       .  S
C130        C131   1.410       .  A
C130       C1557   1.507       .  S
C131        H132   1.083       .  S
C134        C135   1.430       .  A
C134        C139   1.415       .  A
C134       C3078   1.506       .  S
C135        C136   1.423       .  A
C135       C2546   1.516       .  S
C136        C137   1.419       .  A
C136        H141   1.082       .  S
C137        C138   1.419       .  A
C137       C1501   1.505       .  S
C138        C139   1.410       .  A
C138       C1473   1.504       .  S
C139        H140   1.084       .  S
C142        C163   1.578       .  S
C142       C1389   1.583       .  S
C142       C1417   1.592       .  S
C142       C1445   1.585       .  S
N143        N144   1.334       .  A
N143        N149   1.323       .  A
N143       Mn172   2.278   1_556  S
N144        C151   1.363       .  A
N145        N147   1.322       .  A
N145        N146   1.326       .  A
N145       Mn161   2.266   1_455  S
N146        C152   1.362       .  A
N147        N148   1.329       .  A
N147       Mn172   2.236       .  S
N148        C152   1.357       .  A
N149        N150   1.332       .  A
N149       Mn161   2.284   1_456  S
N150        C151   1.367       .  A
C151        C190   1.587       .  S
C152        C201   1.554       .  S
N153        N159   1.322       .  A
N153        N154   1.324       .  A
N153       Mn183   2.265       .  S
N154        C162   1.356       .  A
N155        N156   1.329       .  A
N155        N157   1.322       .  A
N155       Mn161   2.269   1_556  S
N156        C163   1.360       .  A
N157        N158   1.335       .  A
N157       Mn183   2.278   1_556  S
N158        C163   1.367       .  A
N159        N160   1.345       .  A
N159       Mn161   2.313       .  S
N160        C162   1.375       .  A
Mn161      Cl185   2.606       .  S
C162        C192   1.599       .  S
N164        N165   1.337       .  A
N164        N170   1.321       .  A
N164       Mn172   2.277       .  S
N165        C173   1.367       .  A
N166        N168   1.322       .  A
N166        N167   1.332       .  A
N166       Mn184   2.289   1_456  S
N167        C174   1.365       .  A
N168        N169   1.330       .  A
N168       Mn172   2.252   1_556  S
N169        C174   1.361       .  A
N170        N171   1.330       .  A
N170       Mn184   2.291   1_455  S
N171        C173   1.363       .  A
Mn172      Cl185   2.604   1_455  S
C173        C202   1.591       .  S
C174        C189   1.576       .  S
N175        N176   1.329       .  A
N175        N181   1.322       .  A
N175       Mn183   2.255   1_556  S
N176        C186   1.362       .  A
N177        N178   1.333       .  A
N177        N179   1.324       .  A
N177       Mn184   2.277       .  S
N178        C187   1.364       .  A
N179        N180   1.332       .  A
N179       Mn183   2.286       .  S
N180        C187   1.365       .  A
N181        N182   1.335       .  A
N181       Mn184   2.299   1_556  S
N182        C186   1.366       .  A
Mn183      Cl185   2.597       .  S
Mn184      Cl185   2.605       .  S
C186        C191   1.591       .  S
C187        C188   1.577       .  S
C188       C1566   1.595       .  S
C188       C1762   1.571       .  S
C188       C2154   1.565       .  S
C189       C1510   1.599       .  S
C189       C1678   1.588       .  S
C189       C2313   1.567       .  S
C190       C1361   1.586       .  S
C190       C1482   1.598       .  S
C190       C1837   1.586       .  S
C191       C1333   1.580       .  S
C191       C1641   1.593       .  S
C191       C1790   1.588       .  S
C192       C1286   1.588       .  S
C192       C1305   1.592       .  S
C192       C1529   1.601       .  S
C193        C194   1.419       .  A
C193        C198   1.411       .  A
C193       C2938   1.498       .  S
C194        C195   1.405       .  A
C194       C2462   1.485       .  S
C195        C196   1.403       .  A
C195        H200   1.084       .  S
C196        C197   1.420       .  A
C196       C1454   1.492       .  S
C197        C198   1.411       .  A
C197       C1342   1.493       .  S
C198        H199   1.083       .  S
C201       C1249   1.555       .  S
C201       C1818   1.582       .  S
C201       C1949   1.603       .  S
C202       C1930   1.587       .  S
C202       C2098   1.595       .  S
C202       C2369   1.583       .  S
C203        C204   1.418       .  A
C203        C208   1.410   1_545  A
C203       C1221   1.495   1_545  S
C204        C205   1.401       .  A
C204       C1202   1.481       .  S
C205        C206   1.401       .  A
C205        H210   1.084       .  S
C206        C207   1.417       .  A
C206       C1165   1.487       .  S
C207        C208   1.411   1_545  A
C207       C1137   1.491   1_545  S
C208        H209   1.083       .  S
C211        C212   1.417       .  A
C211        C216   1.398       .  A
C211       C2798   1.474       .  S
C212        C213   1.399       .  A
C212       C2677   1.485       .  S
C213        C214   1.403       .  A
C213        H218   1.082       .  S
C214        C215   1.423       .  A
C214       C1081   1.484       .  S
C215        C216   1.399       .  A
C215       C1109   1.485       .  S
C216        H217   1.084       .  S
C219        C220   1.418       .  A
C219        C224   1.403       .  A
C219       C2518   1.481       .  S
C220        C221   1.407       .  A
C220       C2966   1.500       .  S
C221        C222   1.410       .  A
C221        H226   1.083       .  S
C222        C223   1.423       .  A
C222       C1053   1.489       .  S
C223        C224   1.405       .  A
C223       C1025   1.497       .  S
C224        H225   1.081       .  S
C227        C248   1.578       .  S
C227       C1006   1.600       .  S
C227       C1062   1.589       .  S
C227       C1734   1.567       .  S
N228        N229   1.325       .  A
N228        N234   1.322       .  A
N228       Mn257   2.272   1_556  S
N229        C236   1.360       .  A
N230        N232   1.320       .  A
N230        N231   1.325       .  A
N230       Mn246   2.235   1_565  S
N231        C237   1.357       .  A
N232        N233   1.328       .  A
N232       Mn257   2.251       .  S
N233        C237   1.360       .  A
N234        N235   1.337       .  A
N234       Mn246   2.275   1_566  S
N235        C236   1.366       .  A
C236        C276   1.567       .  S
C237        C273   1.550       .  S
N238        N244   1.322       .  A
N238        N239   1.339       .  A
N238       Mn268   2.311       .  S
N239        C247   1.371       .  A
N240        N241   1.327       .  A
N240        N242   1.318       .  A
N240       Mn246   2.248   1_556  S
N241        C248   1.360       .  A
N242        N243   1.334       .  A
N242       Mn268   2.277   1_556  S
N243        C248   1.368       .  A
N244        N245   1.330       .  A
N244       Mn246   2.267       .  S
N245        C247   1.362       .  A
Mn246      Cl270   2.603       .  S
C247        C287   1.593       .  S
N249        N250   1.335       .  A
N249        N255   1.323       .  A
N249       Mn257   2.301       .  S
N250        C258   1.369       .  A
N251        N253   1.318       .  A
N251        N252   1.338       .  A
N251       Mn269   2.305   1_566  S
N252        C259   1.373       .  A
N253        N254   1.327       .  A
N253       Mn257   2.227   1_556  S
N254        C259   1.355       .  A
N255        N256   1.332       .  A
N255       Mn269   2.268   1_565  S
N256        C258   1.364       .  A
Mn257      Cl270   2.586   1_565  S
C258        C277   1.592       .  S
C259        C274   1.577       .  S
N260        N261   1.329       .  A
N260        N266   1.323       .  A
N260       Mn268   2.282   1_556  S
N261        C271   1.365       .  A
N262        N263   1.335       .  A
N262        N264   1.322       .  A
N262       Mn269   2.297       .  S
N263        C272   1.365       .  A
N264        N265   1.330       .  A
N264       Mn268   2.259       .  S
N265        C272   1.364       .  A
N266        N267   1.330       .  A
N266       Mn269   2.260   1_556  S
N267        C271   1.360       .  A
Mn268      Cl270   2.592       .  S
Mn269      Cl270   2.597       .  S
C271        C275   1.572       .  S
C272        C286   1.588       .  S
C273        C941   1.575       .  S
C273        C969   1.580       .  S
C273       C1118   1.572       .  S
C274        C913   1.591       .  S
C274       C1230   1.572       .  S
C274       C1902   1.561       .  S
C275       C1034   1.566       .  S
C275       C1193   1.581       .  S
C275       C2406   1.582       .  S
C276        C829   1.577       .  S
C276        C857   1.588       .  S
C276        C885   1.584       .  S
C277       C1090   1.585       .  S
C277       C1874   1.589       .  S
C277       C2201   1.580       .  S
C278        C279   1.416       .  A
C278        C283   1.408       .  A
C278       C3022   1.493       .  S
C279        C280   1.402       .  A
C279       C2434   1.490       .  S
C280        C281   1.409       .  A
C280        H285   1.083       .  S
C281        C282   1.422       .  A
C281        C894   1.492       .  S
C282        C283   1.411       .  A
C282        C922   1.498       .  S
C283        H284   1.083       .  S
C286       C2070   1.580       .  S
C286       C2266   1.595       .  S
C286       C2350   1.565       .  S
C287        C801   1.577       .  S
C287       C1706   1.583       .  S
C287       C2033   1.589       .  S
C288        C289   1.417       .  A
C288        C293   1.380   1_655  A
C288       C1258   1.462       .  S
C289        C290   1.439       .  A
C289       C1314   1.509       .  S
C290        C291   1.444       .  A
C290        H295   1.079       .  S
C291        C292   1.368       .  A
C291        C782   1.567       .  S
C292        C293   1.369   1_655  A
C292        C745   1.370   1_655  S
C293        H294   1.086       .  S
C296        C297   1.419   1_565  A
C296        C301   1.400       .  A
C296        C978   1.485       .  S
C297        C298   1.415       .  A
C297        C810   1.500       .  S
C298        C299   1.411       .  A
C298        H303   1.083       .  S
C299        C300   1.421   1_545  A
C299        C717   1.502       .  S
C300        C301   1.402       .  A
C300        C689   1.489       .  S
C301        H302   1.081       .  S
C304        C305   1.420       .  A
C304        C309   1.404       .  A
C304       C2630   1.487       .  S
C305        C306   1.412       .  A
C305       C2994   1.502       .  S
C306        C307   1.413       .  A
C306        H311   1.083       .  S
C307        C308   1.420       .  A
C307        C661   1.501       .  S
C308        C309   1.404       .  A
C308        C633   1.484       .  S
C309        H310   1.083       .  S
C312        C313   1.418       .  A
C312        C317   1.409       .  A
C312       C2714   1.488       .  S
C313        C314   1.407       .  A
C313       C3050   1.495       .  S
C314        C315   1.407       .  A
C314        H319   1.083       .  S
C315        C316   1.420       .  A
C315        C605   1.490       .  S
C316        C317   1.409       .  A
C316        C577   1.494       .  S
C317        H318   1.083       .  S
C320        C341   1.589       .  S
C320        C642   1.592       .  S
C320        C726   1.588       .  S
C320       C2126   1.576       .  S
N321        N322   1.323       .  A
N321        N327   1.322       .  A
N321       Mn350   2.255       .  S
N322        C329   1.356       .  A
N323        N325   1.323       .  A
N323        N324   1.335       .  A
N323       Mn339   2.287   1_565  S
N324        C330   1.366       .  A
N325        N326   1.330       .  A
N325       Mn350   2.265   1_565  S
N326        C330   1.363       .  A
N327        N328   1.335       .  A
N327       Mn339   2.280       .  S
N328        C329   1.367       .  A
C329        C369   1.579       .  S
C330        C370   1.576       .  S
N331        N337   1.323       .  A
N331        N332   1.329       .  A
N331       Mn361   2.266   1_565  S
N332        C340   1.362       .  A
N333        N334   1.337       .  A
N333        N335   1.323       .  A
N333       Mn339   2.284       .  S
N334        C341   1.367       .  A
N335        N336   1.330       .  A
N335       Mn361   2.273       .  S
N336        C341   1.362       .  A
N337        N338   1.332       .  A
N337       Mn339   2.273   1_565  S
N338        C340   1.363       .  A
Mn339      Cl363   2.603       .  S
C340        C366   1.568       .  S
N342        N343   1.334       .  A
N342        N348   1.319       .  A
N342       Mn350   2.267   1_465  S
N343        C351   1.365       .  A
N344        N346   1.319       .  A
N344        N345   1.330       .  A
N344       Mn362   2.224       .  S
N345        C352   1.355       .  A
N346        N347   1.329       .  A
N346       Mn350   2.284   1_455  S
N347        C352   1.369       .  A
N348        N349   1.326       .  A
N348       Mn362   2.259   1_565  S
N349        C351   1.358       .  A
Mn350      Cl363   2.591       .  S
C351        C368   1.584       .  S
C352        C380   1.572       .  S
N353        N354   1.335       .  A
N353        N359   1.322       .  A
N353       Mn361   2.289   1_455  S
N354        C364   1.369       .  A
N355        N356   1.326       .  A
N355        N357   1.319       .  A
N355       Mn362   2.246   1_565  S
N356        C365   1.363       .  A
N357        N358   1.329       .  A
N357       Mn361   2.253   1_465  S
N358        C365   1.359       .  A
N359        N360   1.325       .  A
N359       Mn362   2.236       .  S
N360        C364   1.356       .  A
Mn361      Cl363   2.595       .  S
Mn362      Cl363   2.591   1_455  S
C364        C379   1.567       .  S
C365        C367   1.567       .  S
C366        C558   1.597       .  S
C366        C698   1.568       .  S
C366        C773   1.584       .  S
C367        C586   1.583       .  S
C367        C754   1.583       .  S
C367       C2285   1.579       .  S
C368        C521   1.589       .  S
C368        C614   1.594       .  S
C368       C1146   1.587       .  S
C369        C502   1.570       .  S
C369        C670   1.593       .  S
C369       C1622   1.582       .  S
C370        C418   1.582       .  S
C370        C446   1.567       .  S
C370        C474   1.572       .  S
C371        C372   1.417       .  A
C371        C376   1.399       .  A
C371       C2770   1.485       .  S
C372        C373   1.408       .  A
C372       C2490   1.494       .  S
C373        C374   1.412       .  A
C373        H378   1.083       .  S
C374        C375   1.421       .  A
C374        C465   1.494       .  S
C375        C376   1.404       .  A
C375        C549   1.492       .  S
C376        H377   1.083       .  S
C379       C2014   1.578       .  S
C379       C2182   1.569       .  S
C379       C2238   1.564       .  S
C380       C1174   1.577       .  S
C380       C1585   1.573       .  S
C380       C1977   1.595       .  S
C381        C382   1.418       .  A
C381        C386   1.399       .  A
C381       C1426   1.478       .  S
C382        C383   1.411   1_655  A
C382       C1370   1.501   1_655  S
C383        C384   1.416   1_455  A
C383        H388   1.081       .  S
C384        C385   1.422       .  A
C384        C530   1.497   1_655  S
C385        C386   1.400       .  A
C385        C409   1.491       .  S
C386        H387   1.084       .  S
C389        C390   1.418       .  A
C389        C394   1.401       .  A
C389        C997   1.497       .  S
C390        C391   1.408   1_545  A
C390        C838   1.480   1_545  S
C391        C392   1.406   1_565  A
C391        H396   1.083       .  S
C392        C393   1.421       .  A
C392        C437   1.500   1_545  S
C393        C394   1.406       .  A
C393        C493   1.478       .  S
C394        H395   1.084       .  S
C397        C398   1.422   1_556  A
C397        C402   1.411       .  A
C397       C1398   1.500       .  S
C398        C399   1.410       .  A
C398       C1277   1.493       .  S
C399        C400   1.409       .  A
C399        H404   1.083       .  S
C400        C401   1.420   1_554  A
C400        C950   1.499       .  S
C401        C402   1.410       .  A
C401        C866   1.491       .  S
C402        H403   1.083       .  S
C405        C406   1.404       .  A
C405        C410   1.401       .  A
C405        H415   1.081       .  S
C406        C407   1.415       .  A
C406        C411   1.497       .  S
C407        C408   1.406       .  A
C407        N412   1.430       .  S
C408        C409   1.403       .  A
C408        H413   1.084       .  S
C409        C410   1.411       .  A
C410        N414   1.434       .  S
C411        C416   1.405       .  A
C411        C420   1.402       .  A
N412        O427   1.261       .  A
N412        O428   1.262       .  A
N414        O425   1.262       .  A
N414        O426   1.262       .  A
C416        C417   1.400       .  A
C416        N421   1.432       .  S
C417        C418   1.424       .  A
C417        H422   1.066       .  S
C418        C419   1.430       .  A
C419        C420   1.407       .  A
C419        N423   1.432       .  S
C420        H424   1.081       .  S
N421        O431   1.262       .  A
N421        O432   1.262       .  A
N423        O429   1.262       .  A
N423        O430   1.262       .  A
C433        C434   1.406       .  A
C433        C438   1.404       .  A
C433        H443   1.084       .  S
C434        C435   1.420   1_565  A
C434        C439   1.500       .  S
C435        C436   1.411       .  A
C435        N440   1.437       .  S
C436        C437   1.406   1_545  A
C436        H441   1.083       .  S
C437        C438   1.407       .  A
C438        N442   1.431       .  S
C439        C444   1.428       .  A
C439        C448   1.404       .  A
N440        O455   1.262       .  A
N440        O456   1.261       .  A
N442        O453   1.262       .  A
N442        O454   1.261       .  A
C444        C445   1.410       .  A
C444        N449   1.439   1_565  S
C445        C446   1.400       .  A
C445        H450   1.084       .  S
C446        C447   1.426       .  A
C447        C448   1.406       .  A
C447        N451   1.433       .  S
C448        H452   1.083       .  S
N449        O459   1.261   1_545  A
N449        O460   1.262       .  A
N451        O457   1.262       .  A
N451        O458   1.262       .  A
C461        C462   1.416       .  A
C461        C466   1.402       .  A
C461        H471   1.083       .  S
C462        C463   1.417       .  A
C462        C467   1.512       .  S
C463        C464   1.411       .  A
C463        N468   1.433       .  S
C464        C465   1.407       .  A
C464        H469   1.083       .  S
C465        C466   1.404       .  A
C466        N470   1.431       .  S
C467        C472   1.420       .  A
C467        C476   1.390       .  A
N468        O483   1.262       .  A
N468        O484   1.262       .  A
N470        O481   1.262       .  A
N470        O482   1.262       .  A
C472        C473   1.414       .  A
C472        N477   1.418       .  S
C473        C474   1.404       .  A
C473        H478   1.081       .  S
C474        C475   1.444       .  A
C475        C476   1.394       .  A
C475        N479   1.431       .  S
C476        H480   1.085       .  S
N477        O487   1.256       .  A
N477        O488   1.261       .  A
N479        O485   1.259       .  A
N479        O486   1.262       .  A
C489        C490   1.403       .  A
C489        C494   1.401       .  A
C489        H499   1.083       .  S
C490        C491   1.413       .  A
C490        C495   1.483       .  S
C491        C492   1.397       .  A
C491        N496   1.430       .  S
C492        C493   1.398       .  A
C492        H497   1.084       .  S
C493        C494   1.409       .  A
C494        N498   1.431       .  S
C495        C500   1.400       .  A
C495        C504   1.395       .  A
N496        O511   1.261       .  A
N496        O512   1.261       .  A
N498        O509   1.262       .  A
N498        O510   1.262       .  A
C500        C501   1.399       .  A
C500        N505   1.432       .  S
C501        C502   1.424       .  A
C501        H506   1.067       .  S
C502        C503   1.428       .  A
C503        C504   1.400       .  A
C503        N507   1.430       .  S
C504        H508   1.076       .  S
N505        O515   1.262       .  A
N505        O516   1.262       .  A
N507        O513   1.262       .  A
N507        O514   1.263       .  A
C517        C518   1.383       .  A
C517        C522   1.392       .  A
C517        H527   1.085       .  S
C518        C519   1.415       .  A
C518        C523   1.486       .  S
C519        C520   1.417       .  A
C519        N524   1.441   1_455  S
C520        C521   1.416       .  A
C520        H525   1.067       .  S
C521        C522   1.445       .  A
C522        N526   1.431       .  S
C523        C528   1.407       .  A
C523        C532   1.406       .  A
N524        O539   1.261       .  A
N524        O540   1.263       .  A
N526        O537   1.261       .  A
N526        O538   1.259       .  A
C528        C529   1.399       .  A
C528        N533   1.429       .  S
C529        C530   1.406       .  A
C529        H534   1.084   1_455  S
C530        C531   1.413       .  A
C531        C532   1.410       .  A
C531        N535   1.430       .  S
C532        H536   1.084       .  S
N533        O543   1.262       .  A
N533        O544   1.260   1_455  A
N535        O541   1.261       .  A
N535        O542   1.262       .  A
C545        C546   1.414       .  A
C545        C550   1.405       .  A
C545        H555   1.079       .  S
C546        C547   1.424       .  A
C546        C551   1.513       .  S
C547        C548   1.397       .  A
C547        N552   1.430       .  S
C548        C549   1.400       .  A
C548        H553   1.080       .  S
C549        C550   1.405       .  A
C550        N554   1.430       .  S
C551        C556   1.414       .  A
C551        C560   1.403       .  A
N552        O567   1.262       .  A
N552        O568   1.261       .  A
N554        O565   1.262       .  A
N554        O566   1.262       .  A
C556        C557   1.400       .  A
C556        N561   1.431       .  S
C557        C558   1.421       .  A
C557        H562   1.044       .  S
C558        C559   1.436       .  A
C559        C560   1.409       .  A
C559        N563   1.429       .  S
C560        H564   1.078       .  S
N561        O571   1.262       .  A
N561        O572   1.260       .  A
N563        O569   1.260       .  A
N563        O570   1.261       .  A
C573        C574   1.408       .  A
C573        C578   1.405       .  A
C573        H583   1.084       .  S
C574        C575   1.415       .  A
C574        C579   1.495       .  S
C575        C576   1.404       .  A
C575        N580   1.430       .  S
C576        C577   1.403       .  A
C576        H581   1.082       .  S
C577        C578   1.409       .  A
C578        N582   1.429       .  S
C579        C584   1.408       .  A
C579        C588   1.405       .  A
N580        O595   1.261       .  A
N580        O596   1.262       .  A
N582        O593   1.262       .  A
N582        O594   1.262       .  A
C584        C585   1.403       .  A
C584        N589   1.432       .  S
C585        C586   1.421       .  A
C585        H590   1.082       .  S
C586        C587   1.424       .  A
C587        C588   1.407       .  A
C587        N591   1.436       .  S
C588        H592   1.076       .  S
N589        O599   1.262       .  A
N589        O600   1.263       .  A
N591        O597   1.261       .  A
N591        O598   1.263       .  A
C601        C602   1.410       .  A
C601        C606   1.404       .  A
C601        H611   1.084       .  S
C602        C603   1.414       .  A
C602        C607   1.495       .  S
C603        C604   1.405       .  A
C603        N608   1.430       .  S
C604        C605   1.403       .  A
C604        H609   1.082       .  S
C605        C606   1.405       .  A
C606        N610   1.430       .  S
C607        C612   1.407       .  A
C607        C616   1.401       .  A
N608        O623   1.262       .  A
N608        O624   1.261       .  A
N610        O621   1.262       .  A
N610        O622   1.261       .  A
C612        C613   1.406       .  A
C612        N617   1.431       .  S
C613        C614   1.425       .  A
C613        H618   1.082       .  S
C614        C615   1.433       .  A
C615        C616   1.406       .  A
C615        N619   1.438       .  S
C616        H620   1.077       .  S
N617        O627   1.262       .  A
N617        O628   1.262       .  A
N619        O625   1.263       .  A
N619        O626   1.261       .  A
C629        C630   1.407       .  A
C629        C634   1.407       .  A
C629        H639   1.084       .  S
C630        C631   1.418       .  A
C630        C635   1.490       .  S
C631        C632   1.396       .  A
C631        N636   1.429       .  S
C632        C633   1.396       .  A
C632        H637   1.084       .  S
C633        C634   1.409       .  A
C634        N638   1.430       .  S
C635        C640   1.396       .  A
C635        C644   1.410       .  A
N636        O651   1.259       .  A
N636        O652   1.261       .  A
N638        O649   1.262       .  A
N638        O650   1.261       .  A
C640        C641   1.387       .  A
C640        N645   1.438       .  S
C641        C642   1.427       .  A
C641        H646   1.068       .  S
C642        C643   1.430       .  A
C643        C644   1.421       .  A
C643        N647   1.430       .  S
C644        H648   1.084       .  S
N645        O655   1.262       .  A
N645        O656   1.263       .  A
N647        O653   1.262       .  A
N647        O654   1.262       .  A
C657        C658   1.405       .  A
C657        C662   1.410       .  A
C657        H667   1.084       .  S
C658        C659   1.412       .  A
C658        C663   1.494       .  S
C659        C660   1.411       .  A
C659        N664   1.430       .  S
C660        C661   1.408       .  A
C660        H665   1.083       .  S
C661        C662   1.416       .  A
C662        N666   1.442       .  S
C663        C668   1.414       .  A
C663        C672   1.380       .  A
N664        O679   1.262       .  A
N664        O680   1.262       .  A
N666        O677   1.263       .  A
N666        O678   1.263       .  A
C668        C669   1.418       .  A
C668        N673   1.430       .  S
C669        C670   1.415       .  A
C669        H674   1.070       .  S
C670        C671   1.446       .  A
C671        C672   1.391       .  A
C671        N675   1.426       .  S
C672        H676   1.086       .  S
N673        O683   1.261       .  A
N673        O684   1.261       .  A
N675        O681   1.261       .  A
N675        O682   1.257       .  A
C685        C686   1.405       .  A
C685        C690   1.404       .  A
C685        H695   1.084       .  S
C686        C687   1.410       .  A
C686        C691   1.482       .  S
C687        C688   1.398       .  A
C687        N692   1.431       .  S
C688        C689   1.403       .  A
C688        H693   1.084       .  S
C689        C690   1.412       .  A
C690        N694   1.430       .  S
C691        C696   1.396       .  A
C691        C700   1.408       .  A
N692        O707   1.262       .  A
N692        O708   1.262       .  A
N694        O705   1.262       .  A
N694        O706   1.261       .  A
C696        C697   1.386       .  A
C696        N701   1.430       .  S
C697        C698   1.424       .  A
C697        H702   1.083       .  S
C698        C699   1.422       .  A
C699        C700   1.415       .  A
C699        N703   1.428   1_565  S
C700        H704   1.082   1_565  S
N701        O711   1.262       .  A
N701        O712   1.262       .  A
N703        O709   1.261       .  A
N703        O710   1.261       .  A
C713        C714   1.409       .  A
C713        C718   1.402       .  A
C713        H723   1.083       .  S
C714        C715   1.422       .  A
C714        C719   1.517       .  S
C715        C716   1.417       .  A
C715        N720   1.429       .  S
C716        C717   1.406       .  A
C716        H721   1.083       .  S
C717        C718   1.414       .  A
C718        N722   1.444       .  S
C719        C724   1.416       .  A
C719        C728   1.394       .  A
N720        O735   1.262       .  A
N720        O736   1.262       .  A
N722        O733   1.263       .  A
N722        O734   1.263       .  A
C724        C725   1.417       .  A
C724        N729   1.425       .  S
C725        C726   1.419       .  A
C725        H730   1.081       .  S
C726        C727   1.451       .  A
C727        C728   1.394       .  A
C727        N731   1.431       .  S
C728        H732   1.085       .  S
N729        O739   1.258       .  A
N729        O740   1.262       .  A
N731        O737   1.262       .  A
N731        O738   1.263       .  A
C741        C742   1.905       .  A
C741        C746   1.881       .  A
C741        H751   1.079       .  S
C742        C743   1.886       .  A
C742        C747   1.482       .  S
C743        C744   1.895       .  A
C743        N748   1.423       .  S
C744        C745   1.906       .  A
C744        H749   1.080   1_455  S
C745        C746   1.876       .  A
C746        N750   1.423       .  S
C747        C752   1.400       .  A
C747        C756   1.397       .  A
N748        O763   1.261       .  A
N748        O764   1.261   1_455  A
N750        O761   1.261       .  A
N750        O762   1.261   1_455  A
C752        C753   1.390       .  A
C752        N757   1.431       .  S
C753        C754   1.421       .  A
C753        H758   1.070       .  S
C754        C755   1.436       .  A
C755        C756   1.409       .  A
C755        N759   1.427       .  S
C756        H760   1.081   1_455  S
N757        O767   1.262       .  A
N757        O768   1.262       .  A
N759        O765   1.262   1_455  A
N759        O766   1.262       .  A
C769        C770   1.406       .  A
C769        C774   1.403       .  A
C769        H779   1.082       .  S
C770        C771   1.432       .  A
C770        C775   1.523       .  S
C771        C772   1.416       .  A
C771        N776   1.428       .  S
C772        C773   1.403       .  A
C772        H777   1.085       .  S
C773        C774   1.425       .  A
C774        N778   1.438       .  S
C775        C780   1.396       .  A
C775        C784   1.396       .  A
N776        O791   1.262       .  A
N776        O792   1.262       .  A
N778        O789   1.263       .  A
N778        O790   1.262       .  A
C780        C781   1.389       .  A
C780        N785   1.431       .  S
C781        C782   1.414       .  A
C781        H786   1.079       .  S
C782        C783   1.577       .  A
C783        C784   1.508       .  A
C783        N787   2.447   1_655  S
C784        H788   1.067       .  S
N785        O795   1.262       .  A
N785        O796   1.262       .  A
N787        O793   1.297       .  A
N787        O794   1.297       .  A
C797        C798   1.404       .  A
C797        C802   1.399       .  A
C797        H807   1.082       .  S
C798        C799   1.420       .  A
C798        C803   1.510       .  S
C799        C800   1.419       .  A
C799        N804   1.428       .  S
C800        C801   1.416       .  A
C800        H805   1.084       .  S
C801        C802   1.422       .  A
C802        N806   1.433       .  S
C803        C808   1.417       .  A
C803        C812   1.412       .  A
N804        O819   1.262       .  A
N804        O820   1.262       .  A
N806        O817   1.261       .  A
N806        O818   1.263       .  A
C808        C809   1.411       .  A
C808        N813   1.429       .  S
C809        C810   1.410       .  A
C809        H814   1.082   1_545  S
C810        C811   1.403       .  A
C811        C812   1.399       .  A
C811        N815   1.429       .  S
C812        H816   1.075       .  S
N813        O823   1.261   1_545  A
N813        O824   1.262       .  A
N815        O821   1.262       .  A
N815        O822   1.262       .  A
C825        C826   1.383       .  A
C825        C830   1.388       .  A
C825        H835   1.085       .  S
C826        C827   1.419       .  A
C826        C831   1.493       .  S
C827        C828   1.420       .  A
C827        N832   1.435   1_565  S
C828        C829   1.410       .  A
C828        H833   1.081       .  S
C829        C830   1.440       .  A
C830        N834   1.430       .  S
C831        C836   1.417       .  A
C831        C840   1.410       .  A
N832        O847   1.260       .  A
N832        O848   1.260       .  A
N834        O845   1.259       .  A
N834        O846   1.261       .  A
C836        C837   1.393       .  A
C836        N841   1.430       .  S
C837        C838   1.396       .  A
C837        H842   1.083       .  S
C838        C839   1.407       .  A
C839        C840   1.408       .  A
C839        N843   1.429       .  S
C840        H844   1.081       .  S
N841        O851   1.262       .  A
N841        O852   1.260       .  A
N843        O849   1.262       .  A
N843        O850   1.261   1_565  A
C853        C854   1.408       .  A
C853        C858   1.413       .  A
C853        H863   1.082       .  S
C854        C855   1.411       .  A
C854        C859   1.506       .  S
C855        C856   1.405       .  A
C855        N860   1.428       .  S
C856        C857   1.421       .  A
C856        H861   1.083       .  S
C857        C858   1.430       .  A
C858        N862   1.445       .  S
C859        C864   1.421       .  A
C859        C868   1.412       .  A
N860        O875   1.262       .  A
N860        O876   1.263       .  A
N862        O873   1.264       .  A
N862        O874   1.257       .  A
C864        C865   1.405   1_556  A
C864        N869   1.430   1_556  S
C865        C866   1.402   1_554  A
C865        H870   1.084       .  S
C866        C867   1.406       .  A
C867        C868   1.405       .  A
C867        N871   1.432       .  S
C868        H872   1.083       .  S
N869        O879   1.262       .  A
N869        O880   1.261       .  A
N871        O877   1.261       .  A
N871        O878   1.262       .  A
C881        C882   1.400       .  A
C881        C886   1.412       .  A
C881        H891   1.073       .  S
C882        C883   1.411       .  A
C882        C887   1.509       .  S
C883        C884   1.402       .  A
C883        N888   1.430       .  S
C884        C885   1.414       .  A
C884        H889   0.995       .  S
C885        C886   1.446       .  A
C886        N890   1.443       .  S
C887        C892   1.420       .  A
C887        C896   1.413       .  A
N888        O903   1.262       .  A
N888        O904   1.260       .  A
N890        O901   1.263       .  A
N890        O902   1.261       .  A
C892        C893   1.402       .  A
C892        N897   1.432       .  S
C893        C894   1.405       .  A
C893        H898   1.084       .  S
C894        C895   1.406       .  A
C895        C896   1.403       .  A
C895        N899   1.431       .  S
C896        H900   1.081       .  S
N897        O907   1.262       .  A
N897        O908   1.259       .  A
N899        O905   1.262       .  A
N899        O906   1.262       .  A
C909        C910   1.395       .  A
C909        C914   1.407       .  A
C909        H919   1.075       .  S
C910        C911   1.397       .  A
C910        C915   1.493       .  S
C911        C912   1.407       .  A
C911        N916   1.431       .  S
C912        C913   1.431       .  A
C912        H917   1.070       .  S
C913        C914   1.428       .  A
C914        N918   1.426       .  S
C915        C920   1.414       .  A
C915        C924   1.399       .  A
N916        O931   1.262       .  A
N916        O932   1.262       .  A
N918        O929   1.262       .  A
N918        O930   1.260       .  A
C920        C921   1.406       .  A
C920        N925   1.428       .  S
C921        C922   1.402       .  A
C921        H926   1.084       .  S
C922        C923   1.417       .  A
C923        C924   1.407       .  A
C923        N927   1.432       .  S
C924        H928   1.081       .  S
N925        O935   1.261       .  A
N925        O936   1.261       .  A
N927        O933   1.262       .  A
N927        O934   1.262       .  A
C937        C938   1.402       .  A
C937        C942   1.407       .  A
C937        H947   1.072       .  S
C938        C939   1.402       .  A
C938        C943   1.494       .  S
C939        C940   1.404       .  A
C939        N944   1.427       .  S
C940        C941   1.423       .  A
C940        H945   1.083       .  S
C941        C942   1.419       .  A
C942        N946   1.433       .  S
C943        C948   1.412       .  A
C943        C952   1.402       .  A
N944        O959   1.262       .  A
N944        O960   1.261       .  A
N946        O957   1.261       .  A
N946        O958   1.263       .  A
C948        C949   1.405       .  A
C948        N953   1.432       .  S
C949        C950   1.402       .  A
C949        H954   1.084       .  S
C950        C951   1.422       .  A
C951        C952   1.415       .  A
C951        N955   1.441       .  S
C952        H956   1.083       .  S
N953        O963   1.262       .  A
N953        O964   1.262       .  A
N955        O961   1.262       .  A
N955        O962   1.263   1_554  A
C965        C966   1.389       .  A
C965        C970   1.401       .  A
C965        H975   1.075       .  S
C966        C967   1.395       .  A
C966        C971   1.481       .  S
C967        C968   1.403       .  A
C967        N972   1.430       .  S
C968        C969   1.430       .  A
C968        H973   1.072       .  S
C969        C970   1.432       .  A
C970        N974   1.432       .  S
C971        C976   1.407       .  A
C971        C980   1.406       .  A
N972        O987   1.262       .  A
N972        O988   1.262       .  A
N974        O985   1.260   1_565  A
N974        O986   1.262       .  A
C976        C977   1.400       .  A
C976        N981   1.431   1_565  S
C977        C978   1.404       .  A
C977        H982   1.083   1_565  S
C978        C979   1.408       .  A
C979        C980   1.403       .  A
C979        N983   1.429       .  S
C980        H984   1.084       .  S
N981        O991   1.262       .  A
N981        O992   1.262   1_545  A
N983        O989   1.262       .  A
N983        O990   1.262       .  A
C993        C994   1.411       .  A
C993        C998   1.412       .  A
C993       H1003   1.083       .  S
C994        C995   1.422       .  A
C994        C999   1.503       .  S
C995        C996   1.401       .  A
C995       N1000   1.436       .  S
C996        C997   1.398       .  A
C996       H1001   1.081       .  S
C997        C998   1.409       .  A
C998       N1002   1.428       .  S
C999       C1004   1.419       .  A
C999       C1008   1.383       .  A
N1000      O1015   1.261       .  A
N1000      O1016   1.262       .  A
N1002      O1013   1.261       .  A
N1002      O1014   1.262       .  A
C1004      C1005   1.423       .  A
C1004      N1009   1.442       .  S
C1005      C1006   1.421       .  A
C1005      H1010   1.067       .  S
C1006      C1007   1.443       .  A
C1007      C1008   1.395       .  A
C1007      N1011   1.426       .  S
C1008      H1012   1.085       .  S
N1009      O1019   1.262       .  A
N1009      O1020   1.259       .  A
N1011      O1017   1.257       .  A
N1011      O1018   1.261       .  A
C1021      C1022   1.408       .  A
C1021      C1026   1.402       .  A
C1021      H1031   1.079       .  S
C1022      C1023   1.428       .  A
C1022      C1027   1.510       .  S
C1023      C1024   1.406       .  A
C1023      N1028   1.435       .  S
C1024      C1025   1.402       .  A
C1024      H1029   1.084       .  S
C1025      C1026   1.409       .  A
C1026      N1030   1.433       .  S
C1027      C1032   1.431       .  A
C1027      C1036   1.404       .  A
N1028      O1043   1.263       .  A
N1028      O1044   1.259       .  A
N1030      O1041   1.262       .  A
N1030      O1042   1.262       .  A
C1032      C1033   1.408       .  A
C1032      N1037   1.432       .  S
C1033      C1034   1.398       .  A
C1033      H1038   1.083       .  S
C1034      C1035   1.421       .  A
C1035      C1036   1.399       .  A
C1035      N1039   1.429       .  S
C1036      H1040   1.078       .  S
N1037      O1047   1.262       .  A
N1037      O1048   1.259       .  A
N1039      O1045   1.262       .  A
N1039      O1046   1.261       .  A
C1049      C1050   1.412       .  A
C1049      C1054   1.400       .  A
C1049      H1059   1.080       .  S
C1050      C1051   1.421       .  A
C1050      C1055   1.513       .  S
C1051      C1052   1.410       .  A
C1051      N1056   1.430       .  S
C1052      C1053   1.402       .  A
C1052      H1057   1.083       .  S
C1053      C1054   1.404       .  A
C1054      N1058   1.431       .  S
C1055      C1060   1.408       .  A
C1055      C1064   1.410       .  A
N1056      O1071   1.261       .  A
N1056      O1072   1.261       .  A
N1058      O1069   1.260       .  A
N1058      O1070   1.262       .  A
C1060      C1061   1.397       .  A
C1060      N1065   1.432       .  S
C1061      C1062   1.424       .  A
C1061      H1066   1.060       .  S
C1062      C1063   1.419       .  A
C1063      C1064   1.416       .  A
C1063      N1067   1.428       .  S
C1064      H1068   1.072       .  S
N1065      O1075   1.263       .  A
N1065      O1076   1.262       .  A
N1067      O1073   1.262       .  A
N1067      O1074   1.260       .  A
C1077      C1078   1.408       .  A
C1077      C1082   1.405       .  A
C1077      H1087   1.082       .  S
C1078      C1079   1.415       .  A
C1078      C1083   1.488       .  S
C1079      C1080   1.394       .  A
C1079      N1084   1.430       .  S
C1080      C1081   1.400       .  A
C1080      H1085   1.084       .  S
C1081      C1082   1.408       .  A
C1082      N1086   1.431       .  S
C1083      C1088   1.407       .  A
C1083      C1092   1.384       .  A
N1084      O1099   1.262       .  A
N1084      O1100   1.260       .  A
N1086      O1097   1.261       .  A
N1086      O1098   1.262       .  A
C1088      C1089   1.409       .  A
C1088      N1093   1.430       .  S
C1089      C1090   1.423       .  A
C1089      H1094   1.078       .  S
C1090      C1091   1.447       .  A
C1091      C1092   1.394       .  A
C1091      N1095   1.424       .  S
C1092      H1096   1.084       .  S
N1093      O1103   1.262       .  A
N1093      O1104   1.260       .  A
N1095      O1101   1.263       .  A
N1095      O1102   1.262       .  A
C1105      C1106   1.399       .  A
C1105      C1110   1.396       .  A
C1105      H1115   1.083       .  S
C1106      C1107   1.408       .  A
C1106      C1111   1.473       .  S
C1107      C1108   1.406       .  A
C1107      N1112   1.431       .  S
C1108      C1109   1.407       .  A
C1108      H1113   1.083       .  S
C1109      C1110   1.409       .  A
C1110      N1114   1.433       .  S
C1111      C1116   1.393       .  A
C1111      C1120   1.402       .  A
N1112      O1127   1.262       .  A
N1112      O1128   1.262       .  A
N1114      O1125   1.262       .  A
N1114      O1126   1.262       .  A
C1116      C1117   1.384       .  A
C1116      N1121   1.431       .  S
C1117      C1118   1.425       .  A
C1117      H1122   1.079       .  S
C1118      C1119   1.428       .  A
C1119      C1120   1.412       .  A
C1119      N1123   1.428       .  S
C1120      H1124   1.083       .  S
N1121      O1131   1.262       .  A
N1121      O1132   1.262       .  A
N1123      O1129   1.260       .  A
N1123      O1130   1.261       .  A
C1133      C1134   1.406       .  A
C1133      C1138   1.404       .  A
C1133      H1143   1.082       .  S
C1134      C1135   1.418       .  A
C1134      C1139   1.501       .  S
C1135      C1136   1.405       .  A
C1135      N1140   1.429       .  S
C1136      C1137   1.402       .  A
C1136      H1141   1.084       .  S
C1137      C1138   1.412       .  A
C1138      N1142   1.435   1_565  S
C1139      C1144   1.402       .  A
C1139      C1148   1.400       .  A
N1140      O1155   1.261       .  A
N1140      O1156   1.261       .  A
N1142      O1153   1.262   1_545  A
N1142      O1154   1.263       .  A
C1144      C1145   1.397       .  A
C1144      N1149   1.432       .  S
C1145      C1146   1.420       .  A
C1145      H1150   1.061       .  S
C1146      C1147   1.441       .  A
C1147      C1148   1.412       .  A
C1147      N1151   1.435       .  S
C1148      H1152   1.080       .  S
N1149      O1159   1.262       .  A
N1149      O1160   1.262       .  A
N1151      O1157   1.259       .  A
N1151      O1158   1.263       .  A
C1161      C1162   1.406       .  A
C1161      C1166   1.407       .  A
C1161      H1171   1.084       .  S
C1162      C1163   1.409       .  A
C1162      C1167   1.487       .  S
C1163      C1164   1.401       .  A
C1163      N1168   1.429       .  S
C1164      C1165   1.402       .  A
C1164      H1169   1.084       .  S
C1165      C1166   1.410       .  A
C1166      N1170   1.433       .  S
C1167      C1172   1.391       .  A
C1167      C1176   1.409       .  A
N1168      O1183   1.260       .  A
N1168      O1184   1.261       .  A
N1170      O1181   1.262       .  A
N1170      O1182   1.262       .  A
C1172      C1173   1.387       .  A
C1172      N1177   1.430       .  S
C1173      C1174   1.426       .  A
C1173      H1178   1.077       .  S
C1174      C1175   1.429       .  A
C1175      C1176   1.421       .  A
C1175      N1179   1.432       .  S
C1176      H1180   1.081       .  S
N1177      O1187   1.262       .  A
N1177      O1188   1.261       .  A
N1179      O1185   1.262       .  A
N1179      O1186   1.259       .  A
C1189      C1190   1.379       .  A
C1189      C1194   1.387       .  A
C1189      H1199   1.086       .  S
C1190      C1191   1.404       .  A
C1190      C1195   1.479       .  S
C1191      C1192   1.411       .  A
C1191      N1196   1.424       .  S
C1192      C1193   1.417       .  A
C1192      H1197   1.072       .  S
C1193      C1194   1.447       .  A
C1194      N1198   1.431       .  S
C1195      C1200   1.409       .  A
C1195      C1204   1.404       .  A
N1196      O1211   1.261       .  A
N1196      O1212   1.256       .  A
N1198      O1209   1.259       .  A
N1198      O1210   1.261       .  A
C1200      C1201   1.405       .  A
C1200      N1205   1.430       .  S
C1201      C1202   1.404       .  A
C1201      H1206   1.083       .  S
C1202      C1203   1.407       .  A
C1203      C1204   1.395       .  A
C1203      N1207   1.433       .  S
C1204      H1208   1.084       .  S
N1205      O1215   1.262       .  A
N1205      O1216   1.262       .  A
N1207      O1213   1.262       .  A
N1207      O1214   1.262       .  A
C1217      C1218   1.403       .  A
C1217      C1222   1.398       .  A
C1217      H1227   1.084       .  S
C1218      C1219   1.410       .  A
C1218      C1223   1.489       .  S
C1219      C1220   1.412       .  A
C1219      N1224   1.430       .  S
C1220      C1221   1.409       .  A
C1220      H1225   1.083       .  S
C1221      C1222   1.411       .  A
C1222      N1226   1.433       .  S
C1223      C1228   1.415       .  A
C1223      C1232   1.382       .  A
N1224      O1239   1.262       .  A
N1224      O1240   1.262       .  A
N1226      O1237   1.262       .  A
N1226      O1238   1.262       .  A
C1228      C1229   1.421       .  A
C1228      N1233   1.433   1_565  S
C1229      C1230   1.416       .  A
C1229      H1234   1.082       .  S
C1230      C1231   1.444       .  A
C1231      C1232   1.388       .  A
C1231      N1235   1.430       .  S
C1232      H1236   1.086       .  S
N1233      O1243   1.262       .  A
N1233      O1244   1.261       .  A
N1235      O1241   1.260       .  A
N1235      O1242   1.259       .  A
C1245      C1246   1.404       .  A
C1245      C1250   1.400       .  A
C1245      H1255   1.084   1_455  S
C1246      C1247   1.397       .  A
C1246      C1251   1.468       .  S
C1247      C1248   1.383       .  A
C1247      N1252   1.433       .  S
C1248      C1249   1.426       .  A
C1248      H1253   1.083       .  S
C1249      C1250   1.424       .  A
C1250      N1254   1.433       .  S
C1251      C1256   1.413       .  A
C1251      C1260   1.402       .  A
N1252      O1267   1.262       .  A
N1252      O1268   1.263       .  A
N1254      O1265   1.261   1_455  A
N1254      O1266   1.261       .  A
C1256      C1257   1.392   1_455  A
C1256      N1261   1.433       .  S
C1257      C1258   1.398       .  A
C1257      H1262   1.084       .  S
C1258      C1259   1.406       .  A
C1259      C1260   1.394   1_655  A
C1259      N1263   1.432       .  S
C1260      H1264   1.084       .  S
N1261      O1271   1.262       .  A
N1261      O1272   1.262       .  A
N1263      O1269   1.262       .  A
N1263      O1270   1.262   1_655  A
C1273      C1274   1.407       .  A
C1273      C1278   1.406       .  A
C1273      H1283   1.084       .  S
C1274      C1275   1.414       .  A
C1274      C1279   1.495       .  S
C1275      C1276   1.404       .  A
C1275      N1280   1.431       .  S
C1276      C1277   1.403       .  A
C1276      H1281   1.084       .  S
C1277      C1278   1.409       .  A
C1278      N1282   1.430       .  S
C1279      C1284   1.400       .  A
C1279      C1288   1.398       .  A
N1280      O1295   1.262       .  A
N1280      O1296   1.260       .  A
N1282      O1293   1.262       .  A
N1282      O1294   1.261       .  A
C1284      C1285   1.402       .  A
C1284      N1289   1.433       .  S
C1285      C1286   1.422       .  A
C1285      H1290   1.062       .  S
C1286      C1287   1.442       .  A
C1287      C1288   1.410       .  A
C1287      N1291   1.434       .  S
C1288      H1292   1.084       .  S
N1289      O1299   1.262       .  A
N1289      O1300   1.262       .  A
N1291      O1297   1.259       .  A
N1291      O1298   1.263       .  A
C1301      C1302   1.386       .  A
C1301      C1306   1.399       .  A
C1301      H1311   1.085       .  S
C1302      C1303   1.426       .  A
C1302      C1307   1.510       .  S
C1303      C1304   1.421       .  A
C1303      N1308   1.433       .  S
C1304      C1305   1.407       .  A
C1304      H1309   1.073       .  S
C1305      C1306   1.445       .  A
C1306      N1310   1.428       .  S
C1307      C1312   1.411       .  A
C1307      C1316   1.405       .  A
N1308      O1323   1.256       .  A
N1308      O1324   1.263       .  A
N1310      O1321   1.259       .  A
N1310      O1322   1.262       .  A
C1312      C1313   1.413       .  A
C1312      N1317   1.429       .  S
C1313      C1314   1.410       .  A
C1313      H1318   1.083       .  S
C1314      C1315   1.422       .  A
C1315      C1316   1.418       .  A
C1315      N1319   1.443       .  S
C1316      H1320   1.083       .  S
N1317      O1327   1.262       .  A
N1317      O1328   1.261       .  A
N1319      O1325   1.263       .  A
N1319      O1326   1.263       .  A
C1329      C1330   1.406       .  A
C1329      C1334   1.400       .  A
C1329      H1339   1.072       .  S
C1330      C1331   1.437       .  A
C1330      C1335   1.523       .  S
C1331      C1332   1.420       .  A
C1331      N1336   1.431       .  S
C1332      C1333   1.401       .  A
C1332      H1337   1.082       .  S
C1333      C1334   1.417       .  A
C1334      N1338   1.440       .  S
C1335      C1340   1.431       .  A
C1335      C1344   1.414       .  A
N1336      O1351   1.260       .  A
N1336      O1352   1.260       .  A
N1338      O1349   1.262       .  A
N1338      O1350   1.263       .  A
C1340      C1341   1.401       .  A
C1340      N1345   1.430       .  S
C1341      C1342   1.395       .  A
C1341      H1346   1.084       .  S
C1342      C1343   1.405       .  A
C1343      C1344   1.409       .  A
C1343      N1347   1.429       .  S
C1344      H1348   1.075       .  S
N1345      O1355   1.263       .  A
N1345      O1356   1.260       .  A
N1347      O1353   1.262       .  A
N1347      O1354   1.261       .  A
C1357      C1358   1.408       .  A
C1357      C1362   1.415       .  A
C1357      H1367   1.083   1_455  S
C1358      C1359   1.402       .  A
C1358      C1363   1.495       .  S
C1359      C1360   1.397       .  A
C1359      N1364   1.430       .  S
C1360      C1361   1.422       .  A
C1360      H1365   1.080       .  S
C1361      C1362   1.426       .  A
C1362      N1366   1.433       .  S
C1363      C1368   1.411       .  A
C1363      C1372   1.404       .  A
N1364      O1379   1.262       .  A
N1364      O1380   1.262       .  A
N1366      O1377   1.262       .  A
N1366      O1378   1.261   1_455  A
C1368      C1369   1.407       .  A
C1368      N1373   1.429       .  S
C1369      C1370   1.403       .  A
C1369      H1374   1.082       .  S
C1370      C1371   1.414   1_455  A
C1371      C1372   1.407   1_655  A
C1371      N1375   1.431       .  S
C1372      H1376   1.083   1_455  S
N1373      O1383   1.261       .  A
N1373      O1384   1.262       .  A
N1375      O1381   1.262       .  A
N1375      O1382   1.262   1_655  A
C1385      C1386   1.411       .  A
C1385      C1390   1.418       .  A
C1385      H1395   1.077   1_556  S
C1386      C1387   1.407       .  A
C1386      C1391   1.506       .  S
C1387      C1388   1.402       .  A
C1387      N1392   1.440       .  S
C1388      C1389   1.428       .  A
C1388      H1393   1.080       .  S
C1389      C1390   1.420       .  A
C1390      N1394   1.427       .  S
C1391      C1396   1.421       .  A
C1391      C1400   1.405       .  A
N1392      O1407   1.263       .  A
N1392      O1408   1.263       .  A
N1394      O1405   1.262   1_556  A
N1394      O1406   1.259   1_556  A
C1396      C1397   1.405       .  A
C1396      N1401   1.429       .  S
C1397      C1398   1.400       .  A
C1397      H1402   1.084       .  S
C1398      C1399   1.415       .  A
C1399      C1400   1.411       .  A
C1399      N1403   1.434   1_556  S
C1400      H1404   1.083       .  S
N1401      O1411   1.261       .  A
N1401      O1412   1.262       .  A
N1403      O1409   1.262       .  A
N1403      O1410   1.263       .  A
C1413      C1414   1.398       .  A
C1413      C1418   1.406       .  A
C1413      H1423   1.083       .  S
C1414      C1415   1.400       .  A
C1414      C1419   1.493       .  S
C1415      C1416   1.398       .  A
C1415      N1420   1.431       .  S
C1416      C1417   1.425       .  A
C1416      H1421   1.059       .  S
C1417      C1418   1.438       .  A
C1418      N1422   1.430       .  S
C1419      C1424   1.418       .  A
C1419      C1428   1.409       .  A
N1420      O1435   1.262       .  A
N1420      O1436   1.262       .  A
N1422      O1433   1.262       .  A
N1422      O1434   1.262       .  A
C1424      C1425   1.398       .  A
C1424      N1429   1.428       .  S
C1425      C1426   1.393       .  A
C1425      H1430   1.083       .  S
C1426      C1427   1.406       .  A
C1427      C1428   1.402       .  A
C1427      N1431   1.431       .  S
C1428      H1432   1.082       .  S
N1429      O1439   1.261       .  A
N1429      O1440   1.261       .  A
N1431      O1437   1.262       .  A
N1431      O1438   1.260       .  A
C1441      C1442   1.395       .  A
C1441      C1446   1.393       .  A
C1441      H1451   1.074       .  S
C1442      C1443   1.435       .  A
C1442      C1447   1.516       .  S
C1443      C1444   1.420       .  A
C1443      N1448   1.428       .  S
C1444      C1445   1.401       .  A
C1444      H1449   1.084       .  S
C1445      C1446   1.420       .  A
C1446      N1450   1.429       .  S
C1447      C1452   1.434       .  A
C1447      C1456   1.411       .  A
N1448      O1463   1.261       .  A
N1448      O1464   1.260       .  A
N1450      O1461   1.261       .  A
N1450      O1462   1.260       .  A
C1452      C1453   1.398       .  A
C1452      N1457   1.433       .  S
C1453      C1454   1.392       .  A
C1453      H1458   1.083       .  S
C1454      C1455   1.407       .  A
C1455      C1456   1.410       .  A
C1455      N1459   1.428       .  S
C1456      H1460   1.077       .  S
N1457      O1467   1.262       .  A
N1457      O1468   1.260       .  A
N1459      O1465   1.261       .  A
N1459      O1466   1.262       .  A
C1469      C1470   1.410       .  A
C1469      C1474   1.411       .  A
C1469      H1479   1.084       .  S
C1470      C1471   1.417       .  A
C1470      C1475   1.508       .  S
C1471      C1472   1.409       .  A
C1471      N1476   1.429       .  S
C1472      C1473   1.403       .  A
C1472      H1477   1.082       .  S
C1473      C1474   1.411       .  A
C1474      N1478   1.430       .  S
C1475      C1480   1.403       .  A
C1475      C1484   1.401       .  A
N1476      O1491   1.261       .  A
N1476      O1492   1.261       .  A
N1478      O1489   1.262       .  A
N1478      O1490   1.261       .  A
C1480      C1481   1.409       .  A
C1480      N1485   1.432       .  S
C1481      C1482   1.430       .  A
C1481      H1486   1.070       .  S
C1482      C1483   1.434       .  A
C1483      C1484   1.412       .  A
C1483      N1487   1.430       .  S
C1484      H1488   1.076       .  S
N1485      O1495   1.262       .  A
N1485      O1496   1.262       .  A
N1487      O1493   1.262       .  A
N1487      O1494   1.262       .  A
C1497      C1498   1.410       .  A
C1497      C1502   1.410       .  A
C1497      H1507   1.084       .  S
C1498      C1499   1.423       .  A
C1498      C1503   1.514       .  S
C1499      C1500   1.410       .  A
C1499      N1504   1.431       .  S
C1500      C1501   1.403       .  A
C1500      H1505   1.082       .  S
C1501      C1502   1.410       .  A
C1502      N1506   1.429       .  S
C1503      C1508   1.411       .  A
C1503      C1512   1.415       .  A
N1504      O1519   1.260       .  A
N1504      O1520   1.262       .  A
N1506      O1517   1.261       .  A
N1506      O1518   1.262       .  A
C1508      C1509   1.403       .  A
C1508      N1513   1.431       .  S
C1509      C1510   1.426       .  A
C1509      H1514   1.082       .  S
C1510      C1511   1.419       .  A
C1511      C1512   1.421       .  A
C1511      N1515   1.438       .  S
C1512      H1516   1.077       .  S
N1513      O1523   1.262       .  A
N1513      O1524   1.263       .  A
N1515      O1521   1.262       .  A
N1515      O1522   1.263       .  A
C1525      C1526   1.405       .  A
C1525      C1530   1.411       .  A
C1525      H1535   1.083       .  S
C1526      C1527   1.410       .  A
C1526      C1531   1.503       .  S
C1527      C1528   1.402       .  A
C1527      N1532   1.429       .  S
C1528      C1529   1.423       .  A
C1528      H1533   1.082       .  S
C1529      C1530   1.436       .  A
C1530      N1534   1.436       .  S
C1531      C1536   1.419       .  A
C1531      C1540   1.407       .  A
N1532      O1547   1.262       .  A
N1532      O1548   1.262       .  A
N1534      O1545   1.262       .  A
N1534      O1546   1.261       .  A
C1536      C1537   1.405       .  A
C1536      N1541   1.430       .  S
C1537      C1538   1.400       .  A
C1537      H1542   1.083       .  S
C1538      C1539   1.412       .  A
C1539      C1540   1.408       .  A
C1539      N1543   1.431       .  S
C1540      H1544   1.082       .  S
N1541      O1551   1.262       .  A
N1541      O1552   1.262       .  A
N1543      O1549   1.262       .  A
N1543      O1550   1.262       .  A
C1553      C1554   1.408       .  A
C1553      C1558   1.414       .  A
C1553      H1563   1.083       .  S
C1554      C1555   1.417       .  A
C1554      C1559   1.507       .  S
C1555      C1556   1.407       .  A
C1555      N1560   1.429       .  S
C1556      C1557   1.401       .  A
C1556      H1561   1.083       .  S
C1557      C1558   1.415       .  A
C1558      N1562   1.430       .  S
C1559      C1564   1.406       .  A
C1559      C1568   1.400       .  A
N1560      O1575   1.262       .  A
N1560      O1576   1.261       .  A
N1562      O1573   1.261       .  A
N1562      O1574   1.262       .  A
C1564      C1565   1.410       .  A
C1564      N1569   1.430       .  S
C1565      C1566   1.427       .  A
C1565      H1570   1.065       .  S
C1566      C1567   1.435       .  A
C1567      C1568   1.410       .  A
C1567      N1571   1.432       .  S
C1568      H1572   1.083       .  S
N1569      O1579   1.262       .  A
N1569      O1580   1.262       .  A
N1571      O1577   1.261       .  A
N1571      O1578   1.263       .  A
C1581      C1582   1.404       .  A
C1581      C1586   1.401       .  A
C1581      H1591   1.079       .  S
C1582      C1583   1.431       .  A
C1582      C1587   1.503       .  S
C1583      C1584   1.412       .  A
C1583      N1588   1.437   1_455  S
C1584      C1585   1.405       .  A
C1584      H1589   1.084       .  S
C1585      C1586   1.418       .  A
C1586      N1590   1.437       .  S
C1587      C1592   1.419   1_455  A
C1587      C1596   1.409       .  A
N1588      O1603   1.260   1_655  A
N1588      O1604   1.262       .  A
N1590      O1601   1.261       .  A
N1590      O1602   1.261       .  A
C1592      C1593   1.402       .  A
C1592      N1597   1.430       .  S
C1593      C1594   1.402   1_655  A
C1593      H1598   1.084       .  S
C1594      C1595   1.408       .  A
C1595      C1596   1.408       .  A
C1595      N1599   1.430       .  S
C1596      H1600   1.082       .  S
N1597      O1607   1.262   1_655  A
N1597      O1608   1.259       .  A
N1599      O1605   1.262       .  A
N1599      O1606   1.261       .  A
C1609      C1610   1.403       .  A
C1609      C1614   1.407       .  A
C1609      H1619   1.080       .  S
C1610      C1611   1.416       .  A
C1610      C1615   1.490       .  S
C1611      C1612   1.398       .  A
C1611      N1616   1.430       .  S
C1612      C1613   1.397       .  A
C1612      H1617   1.084       .  S
C1613      C1614   1.416       .  A
C1614      N1618   1.443       .  S
C1615      C1620   1.409       .  A
C1615      C1624   1.400       .  A
N1616      O1631   1.260       .  A
N1616      O1632   1.262       .  A
N1618      O1629   1.263       .  A
N1618      O1630   1.263       .  A
C1620      C1621   1.404       .  A
C1620      N1625   1.429       .  S
C1621      C1622   1.421       .  A
C1621      H1626   1.083       .  S
C1622      C1623   1.430       .  A
C1623      C1624   1.404       .  A
C1623      N1627   1.434       .  S
C1624      H1628   1.078       .  S
N1625      O1635   1.262       .  A
N1625      O1636   1.262       .  A
N1627      O1633   1.262       .  A
N1627      O1634   1.261       .  A
C1637      C1638   1.401       .  A
C1637      C1642   1.409       .  A
C1637      H1647   1.081       .  S
C1638      C1639   1.391       .  A
C1638      C1643   1.480       .  S
C1639      C1640   1.390       .  A
C1639      N1644   1.430       .  S
C1640      C1641   1.432       .  A
C1640      H1645   1.080       .  S
C1641      C1642   1.426       .  A
C1642      N1646   1.419       .  S
C1643      C1648   1.408       .  A
C1643      C1652   1.402       .  A
N1644      O1659   1.262       .  A
N1644      O1660   1.262       .  A
N1646      O1657   1.262       .  A
N1646      O1658   1.262       .  A
C1648      C1649   1.399       .  A
C1648      N1653   1.427       .  S
C1649      C1650   1.402       .  A
C1649      H1654   1.084       .  S
C1650      C1651   1.412       .  A
C1651      C1652   1.405       .  A
C1651      N1655   1.431       .  S
C1652      H1656   1.084       .  S
N1653      O1663   1.260       .  A
N1653      O1664   1.262       .  A
N1655      O1661   1.262       .  A
N1655      O1662   1.262       .  A
C1665      C1666   1.418   1_655  A
C1665      C1670   1.407       .  A
C1665      H1675   1.077       .  S
C1666      C1667   1.427       .  A
C1666      C1671   1.528       .  S
C1667      C1668   1.407       .  A
C1667      N1672   1.428       .  S
C1668      C1669   1.397   1_455  A
C1668      H1673   1.084       .  S
C1669      C1670   1.410       .  A
C1670      N1674   1.442       .  S
C1671      C1676   1.422       .  A
C1671      C1680   1.406       .  A
N1672      O1687   1.260       .  A
N1672      O1688   1.263       .  A
N1674      O1685   1.263       .  A
N1674      O1686   1.263       .  A
C1676      C1677   1.413       .  A
C1676      N1681   1.431       .  S
C1677      C1678   1.413       .  A
C1677      H1682   1.061       .  S
C1678      C1679   1.442       .  A
C1679      C1680   1.402       .  A
C1679      N1683   1.437       .  S
C1680      H1684   1.080       .  S
N1681      O1691   1.260       .  A
N1681      O1692   1.262       .  A
N1683      O1689   1.260       .  A
N1683      O1690   1.263       .  A
C1693      C1694   1.406       .  A
C1693      C1698   1.407       .  A
C1693      H1703   1.083       .  S
C1694      C1695   1.416       .  A
C1694      C1699   1.507       .  S
C1695      C1696   1.410       .  A
C1695      N1700   1.431       .  S
C1696      C1697   1.404       .  A
C1696      H1701   1.083       .  S
C1697      C1698   1.411       .  A
C1698      N1702   1.428       .  S
C1699      C1704   1.406       .  A
C1699      C1708   1.382       .  A
N1700      O1715   1.262       .  A
N1700      O1716   1.262       .  A
N1702      O1713   1.262       .  A
N1702      O1714   1.261       .  A
C1704      C1705   1.408       .  A
C1704      N1709   1.407       .  S
C1705      C1706   1.409       .  A
C1705      H1710   1.081       .  S
C1706      C1707   1.450       .  A
C1707      C1708   1.401       .  A
C1707      N1711   1.424       .  S
C1708      H1712   1.084       .  S
N1709      O1719   1.260       .  A
N1709      O1720   1.257       .  A
N1711      O1717   1.257       .  A
N1711      O1718   1.262       .  A
C1721      C1722   1.408   1_554  A
C1721      C1726   1.406       .  A
C1721      H1731   1.078       .  S
C1722      C1723   1.418       .  A
C1722      C1727   1.505       .  S
C1723      C1724   1.398       .  A
C1723      N1728   1.431       .  S
C1724      C1725   1.398       .  A
C1724      H1729   1.084       .  S
C1725      C1726   1.414   1_556  A
C1726      N1730   1.437       .  S
C1727      C1732   1.426       .  A
C1727      C1736   1.405       .  A
N1728      O1743   1.262       .  A
N1728      O1744   1.262       .  A
N1730      O1741   1.263       .  A
N1730      O1742   1.263       .  A
C1732      C1733   1.416       .  A
C1732      N1737   1.428       .  S
C1733      C1734   1.408       .  A
C1733      H1738   1.084       .  S
C1734      C1735   1.417       .  A
C1735      C1736   1.394       .  A
C1735      N1739   1.435       .  S
C1736      H1740   1.083       .  S
N1737      O1747   1.262   1_556  A
N1737      O1748   1.262       .  A
N1739      O1745   1.263       .  A
N1739      O1746   1.262       .  A
C1749      C1750   1.403       .  A
C1749      C1754   1.398       .  A
C1749      H1759   1.080       .  S
C1750      C1751   1.429       .  A
C1750      C1755   1.511       .  S
C1751      C1752   1.411       .  A
C1751      N1756   1.435       .  S
C1752      C1753   1.403       .  A
C1752      H1757   1.083       .  S
C1753      C1754   1.405       .  A
C1754      N1758   1.428       .  S
C1755      C1760   1.435       .  A
C1755      C1764   1.402       .  A
N1756      O1771   1.262       .  A
N1756      O1772   1.261       .  A
N1758      O1769   1.262       .  A
N1758      O1770   1.262       .  A
C1760      C1761   1.407       .  A
C1760      N1765   1.429       .  S
C1761      C1762   1.388       .  A
C1761      H1766   1.084       .  S
C1762      C1763   1.428       .  A
C1763      C1764   1.403       .  A
C1763      N1767   1.429       .  S
C1764      H1768   1.079       .  S
N1765      O1775   1.260       .  A
N1765      O1776   1.261       .  A
N1767      O1773   1.261       .  A
N1767      O1774   1.262       .  A
C1777      C1778   1.410       .  A
C1777      C1782   1.407       .  A
C1777      H1787   1.083       .  S
C1778      C1779   1.431       .  A
C1778      C1783   1.512       .  S
C1779      C1780   1.398       .  A
C1779      N1784   1.433       .  S
C1780      C1781   1.393       .  A
C1780      H1785   1.084   1_556  S
C1781      C1782   1.409       .  A
C1782      N1786   1.430       .  S
C1783      C1788   1.419       .  A
C1783      C1792   1.382       .  A
N1784      O1799   1.262       .  A
N1784      O1800   1.261   1_556  A
N1786      O1797   1.262       .  A
N1786      O1798   1.262       .  A
C1788      C1789   1.412       .  A
C1788      N1793   1.424       .  S
C1789      C1790   1.417       .  A
C1789      H1794   1.083       .  S
C1790      C1791   1.439       .  A
C1791      C1792   1.397       .  A
C1791      N1795   1.415       .  S
C1792      H1796   1.076       .  S
N1793      O1803   1.262       .  A
N1793      O1804   1.255   1_556  A
N1795      O1801   1.262       .  A
N1795      O1802   1.263       .  A
C1805      C1806   1.407       .  A
C1805      C1810   1.402       .  A
C1805      H1815   1.082       .  S
C1806      C1807   1.412       .  A
C1806      C1811   1.493       .  S
C1807      C1808   1.402       .  A
C1807      N1812   1.433       .  S
C1808      C1809   1.409       .  A
C1808      H1813   1.083       .  S
C1809      C1810   1.410       .  A
C1810      N1814   1.428       .  S
C1811      C1816   1.409       .  A
C1811      C1820   1.403       .  A
N1812      O1827   1.262       .  A
N1812      O1828   1.261       .  A
N1814      O1825   1.262       .  A
N1814      O1826   1.261       .  A
C1816      C1817   1.392       .  A
C1816      N1821   1.431       .  S
C1817      C1818   1.409       .  A
C1817      H1822   1.068       .  S
C1818      C1819   1.437       .  A
C1819      C1820   1.409       .  A
C1819      N1823   1.434       .  S
C1820      H1824   1.083       .  S
N1821      O1831   1.262       .  A
N1821      O1832   1.260       .  A
N1823      O1829   1.261       .  A
N1823      O1830   1.262       .  A
C1833      C1834   1.411       .  A
C1833      C1838   1.419       .  A
C1833      H1843   1.081   1_556  S
C1834      C1835   1.403       .  A
C1834      C1839   1.508       .  S
C1835      C1836   1.400       .  A
C1835      N1840   1.433       .  S
C1836      C1837   1.427       .  A
C1836      H1841   1.077       .  S
C1837      C1838   1.423       .  A
C1838      N1842   1.424   1_556  S
C1839      C1844   1.421       .  A
C1839      C1848   1.402       .  A
N1840      O1855   1.262       .  A
N1840      O1856   1.263       .  A
N1842      O1853   1.260       .  A
N1842      O1854   1.262       .  A
C1844      C1845   1.410       .  A
C1844      N1849   1.428       .  S
C1845      C1846   1.402       .  A
C1845      H1850   1.084       .  S
C1846      C1847   1.414   1_556  A
C1847      C1848   1.407   1_554  A
C1847      N1851   1.429       .  S
C1848      H1852   1.080   1_556  S
N1849      O1859   1.260       .  A
N1849      O1860   1.262       .  A
N1851      O1857   1.262       .  A
N1851      O1858   1.261       .  A
C1861      C1862   1.400       .  A
C1861      C1866   1.403       .  A
C1861      H1871   1.082       .  S
C1862      C1863   1.414       .  A
C1862      C1867   1.495       .  S
C1863      C1864   1.412       .  A
C1863      N1868   1.431       .  S
C1864      C1865   1.406       .  A
C1864      H1869   1.083       .  S
C1865      C1866   1.416       .  A
C1866      N1870   1.436       .  S
C1867      C1872   1.397       .  A
C1867      C1876   1.405       .  A
N1868      O1883   1.262       .  A
N1868      O1884   1.262       .  A
N1870      O1881   1.263       .  A
N1870      O1882   1.262       .  A
C1872      C1873   1.398       .  A
C1872      N1877   1.432       .  S
C1873      C1874   1.432       .  A
C1873      H1878   1.075       .  S
C1874      C1875   1.430       .  A
C1875      C1876   1.415       .  A
C1875      N1879   1.429       .  S
C1876      H1880   1.077       .  S
N1877      O1887   1.262       .  A
N1877      O1888   1.262       .  A
N1879      O1885   1.261       .  A
N1879      O1886   1.262       .  A
C1889      C1890   1.410       .  A
C1889      C1894   1.407       .  A
C1889      H1899   1.083       .  S
C1890      C1891   1.415   1_556  A
C1890      C1895   1.497       .  S
C1891      C1892   1.400       .  A
C1891      N1896   1.430       .  S
C1892      C1893   1.406   1_554  A
C1892      H1897   1.084       .  S
C1893      C1894   1.408       .  A
C1894      N1898   1.430       .  S
C1895      C1900   1.424       .  A
C1895      C1904   1.403       .  A
N1896      O1911   1.262   1_554  A
N1896      O1912   1.260       .  A
N1898      O1909   1.261       .  A
N1898      O1910   1.262       .  A
C1900      C1901   1.407       .  A
C1900      N1905   1.435   1_556  S
C1901      C1902   1.405       .  A
C1901      H1906   1.084       .  S
C1902      C1903   1.421       .  A
C1903      C1904   1.403       .  A
C1903      N1907   1.431       .  S
C1904      H1908   1.080       .  S
N1905      O1915   1.261       .  A
N1905      O1916   1.262       .  A
N1907      O1913   1.261       .  A
N1907      O1914   1.263       .  A
C1917      C1918   1.408       .  A
C1917      C1922   1.406       .  A
C1917      H1927   1.083       .  S
C1918      C1919   1.414       .  A
C1918      C1923   1.492       .  S
C1919      C1920   1.405       .  A
C1919      N1924   1.431       .  S
C1920      C1921   1.402       .  A
C1920      H1925   1.083       .  S
C1921      C1922   1.406       .  A
C1922      N1926   1.430       .  S
C1923      C1928   1.420       .  A
C1923      C1932   1.384       .  A
N1924      O1939   1.262       .  A
N1924      O1940   1.261       .  A
N1926      O1937   1.260       .  A
N1926      O1938   1.262       .  A
C1928      C1929   1.417       .  A
C1928      N1933   1.438       .  S
C1929      C1930   1.409       .  A
C1929      H1934   1.077       .  S
C1930      C1931   1.449       .  A
C1931      C1932   1.394       .  A
C1931      N1935   1.437       .  S
C1932      H1936   1.085       .  S
N1933      O1943   1.261       .  A
N1933      O1944   1.259       .  A
N1935      O1941   1.260       .  A
N1935      O1942   1.262       .  A
C1945      C1946   1.395       .  A
C1945      C1950   1.388       .  A
C1945      H1955   1.083       .  S
C1946      C1947   1.424       .  A
C1946      C1951   1.515       .  S
C1947      C1948   1.423       .  A
C1947      N1952   1.427       .  S
C1948      C1949   1.418       .  A
C1948      H1953   1.082       .  S
C1949      C1950   1.436       .  A
C1950      N1954   1.436       .  S
C1951      C1956   1.418       .  A
C1951      C1960   1.415       .  A
N1952      O1967   1.260       .  A
N1952      O1968   1.262       .  A
N1954      O1965   1.263       .  A
N1954      O1966   1.260       .  A
C1956      C1957   1.416       .  A
C1956      N1961   1.429       .  S
C1957      C1958   1.405       .  A
C1957      H1962   1.083       .  S
C1958      C1959   1.401       .  A
C1959      C1960   1.392       .  A
C1959      N1963   1.434       .  S
C1960      H1964   1.081       .  S
N1961      O1971   1.262       .  A
N1961      O1972   1.262       .  A
N1963      O1969   1.262       .  A
N1963      O1970   1.262       .  A
C1973      C1974   1.398       .  A
C1973      C1978   1.412       .  A
C1973      H1983   1.083       .  S
C1974      C1975   1.393       .  A
C1974      C1979   1.486       .  S
C1975      C1976   1.391       .  A
C1975      N1980   1.432       .  S
C1976      C1977   1.430       .  A
C1976      H1981   1.068       .  S
C1977      C1978   1.438       .  A
C1978      N1982   1.427       .  S
C1979      C1984   1.412       .  A
C1979      C1988   1.404       .  A
N1980      O1995   1.262       .  A
N1980      O1996   1.262       .  A
N1982      O1993   1.262       .  A
N1982      O1994   1.262       .  A
C1984      C1985   1.402       .  A
C1984      N1989   1.429       .  S
C1985      C1986   1.400       .  A
C1985      H1990   1.083       .  S
C1986      C1987   1.408       .  A
C1987      C1988   1.400       .  A
C1987      N1991   1.431       .  S
C1988      H1992   1.083       .  S
N1989      O1999   1.262       .  A
N1989      O2000   1.262       .  A
N1991      O1997   1.262       .  A
N1991      O1998   1.262       .  A
C2001      C2002   1.406       .  A
C2001      C2006   1.402       .  A
C2001      H2011   1.083       .  S
C2002      C2003   1.418       .  A
C2002      C2007   1.494       .  S
C2003      C2004   1.401       .  A
C2003      N2008   1.430       .  S
C2004      C2005   1.397       .  A
C2004      H2009   1.083       .  S
C2005      C2006   1.409       .  A
C2006      N2010   1.431       .  S
C2007      C2012   1.405       .  A
C2007      C2016   1.401       .  A
N2008      O2023   1.262       .  A
N2008      O2024   1.261       .  A
N2010      O2021   1.262       .  A
N2010      O2022   1.262       .  A
C2012      C2013   1.397       .  A
C2012      N2017   1.432       .  S
C2013      C2014   1.423       .  A
C2013      H2018   1.069       .  S
C2014      C2015   1.428       .  A
C2015      C2016   1.406       .  A
C2015      N2019   1.431       .  S
C2016      H2020   1.082       .  S
N2017      O2027   1.262       .  A
N2017      O2028   1.262       .  A
N2019      O2025   1.262       .  A
N2019      O2026   1.262       .  A
C2029      C2030   1.406       .  A
C2029      C2034   1.416       .  A
C2029      H2039   1.077       .  S
C2030      C2031   1.403       .  A
C2030      C2035   1.507       .  S
C2031      C2032   1.396       .  A
C2031      N2036   1.434       .  S
C2032      C2033   1.424       .  A
C2032      H2037   1.069       .  S
C2033      C2034   1.432       .  A
C2034      N2038   1.430       .  S
C2035      C2040   1.416       .  A
C2035      C2044   1.406       .  A
N2036      O2051   1.262       .  A
N2036      O2052   1.262       .  A
N2038      O2049   1.262       .  A
N2038      O2050   1.261       .  A
C2040      C2041   1.411       .  A
C2040      N2045   1.431       .  S
C2041      C2042   1.407       .  A
C2041      H2046   1.083       .  S
C2042      C2043   1.410       .  A
C2043      C2044   1.400       .  A
C2043      N2047   1.442       .  S
C2044      H2048   1.078       .  S
N2045      O2055   1.262       .  A
N2045      O2056   1.262       .  A
N2047      O2053   1.262       .  A
N2047      O2054   1.262       .  A
C2057      C2058   1.409       .  A
C2057      C2062   1.408       .  A
C2057      H2067   1.083       .  S
C2058      C2059   1.417       .  A
C2058      C2063   1.504       .  S
C2059      C2060   1.406       .  A
C2059      N2064   1.429       .  S
C2060      C2061   1.405       .  A
C2060      H2065   1.084       .  S
C2061      C2062   1.408       .  A
C2062      N2066   1.429       .  S
C2063      C2068   1.424       .  A
C2063      C2072   1.402       .  A
N2064      O2079   1.262       .  A
N2064      O2080   1.259       .  A
N2066      O2077   1.262       .  A
N2066      O2078   1.261       .  A
C2068      C2069   1.411       .  A
C2068      N2073   1.431       .  S
C2069      C2070   1.399       .  A
C2069      H2074   1.083       .  S
C2070      C2071   1.434       .  A
C2071      C2072   1.405       .  A
C2071      N2075   1.434       .  S
C2072      H2076   1.082       .  S
N2073      O2083   1.261       .  A
N2073      O2084   1.261       .  A
N2075      O2081   1.263       .  A
N2075      O2082   1.262       .  A
C2085      C2086   1.410       .  A
C2085      C2090   1.402       .  A
C2085      H2095   1.084       .  S
C2086      C2087   1.426   1_455  A
C2086      C2091   1.499       .  S
C2087      C2088   1.401       .  A
C2087      N2092   1.430       .  S
C2088      C2089   1.394   1_655  A
C2088      H2093   1.084       .  S
C2089      C2090   1.404       .  A
C2090      N2094   1.430       .  S
C2091      C2096   1.408       .  A
C2091      C2100   1.410       .  A
N2092      O2107   1.260   1_655  A
N2092      O2108   1.262       .  A
N2094      O2105   1.262       .  A
N2094      O2106   1.261       .  A
C2096      C2097   1.403       .  A
C2096      N2101   1.429       .  S
C2097      C2098   1.425       .  A
C2097      H2102   1.078       .  S
C2098      C2099   1.420       .  A
C2099      C2100   1.411       .  A
C2099      N2103   1.431   1_455  S
C2100      H2104   1.079   1_455  S
N2101      O2111   1.262       .  A
N2101      O2112   1.263       .  A
N2103      O2109   1.263       .  A
N2103      O2110   1.260       .  A
C2113      C2114   1.412       .  A
C2113      C2118   1.403       .  A
C2113      H2123   1.080       .  S
C2114      C2115   1.418       .  A
C2114      C2119   1.510       .  S
C2115      C2116   1.405       .  A
C2115      N2120   1.431       .  S
C2116      C2117   1.406       .  A
C2116      H2121   1.080       .  S
C2117      C2118   1.406       .  A
C2118      N2122   1.427       .  S
C2119      C2124   1.413       .  A
C2119      C2128   1.412       .  A
N2120      O2135   1.262       .  A
N2120      O2136   1.261       .  A
N2122      O2133   1.262       .  A
N2122      O2134   1.262       .  A
C2124      C2125   1.391       .  A
C2124      N2129   1.431       .  S
C2125      C2126   1.417       .  A
C2125      H2130   1.074       .  S
C2126      C2127   1.433       .  A
C2127      C2128   1.415       .  A
C2127      N2131   1.433       .  S
C2128      H2132   1.081       .  S
N2129      O2139   1.262       .  A
N2129      O2140   1.259       .  A
N2131      O2137   1.262       .  A
N2131      O2138   1.261       .  A
C2141      C2142   1.404       .  A
C2141      C2146   1.414       .  A
C2141      H2151   1.082       .  S
C2142      C2143   1.415       .  A
C2142      C2147   1.502       .  S
C2143      C2144   1.414       .  A
C2143      N2148   1.432       .  S
C2144      C2145   1.409       .  A
C2144      H2149   1.083       .  S
C2145      C2146   1.419       .  A
C2146      N2150   1.441       .  S
C2147      C2152   1.422       .  A
C2147      C2156   1.388       .  A
N2148      O2163   1.262       .  A
N2148      O2164   1.262       .  A
N2150      O2161   1.263       .  A
N2150      O2162   1.263       .  A
C2152      C2153   1.414       .  A
C2152      N2157   1.429       .  S
C2153      C2154   1.402       .  A
C2153      H2158   1.081       .  S
C2154      C2155   1.441       .  A
C2155      C2156   1.395       .  A
C2155      N2159   1.431       .  S
C2156      H2160   1.085       .  S
N2157      O2167   1.261       .  A
N2157      O2168   1.259       .  A
N2159      O2165   1.260       .  A
N2159      O2166   1.260       .  A
C2169      C2170   1.413       .  A
C2169      C2174   1.401       .  A
C2169      H2179   1.083       .  S
C2170      C2171   1.417   1_455  A
C2170      C2175   1.508       .  S
C2171      C2172   1.414       .  A
C2171      N2176   1.434       .  S
C2172      C2173   1.406       .  A
C2172      H2177   1.083       .  S
C2173      C2174   1.406   1_655  A
C2174      N2178   1.431       .  S
C2175      C2180   1.419       .  A
C2175      C2184   1.393       .  A
N2176      O2191   1.262   1_655  A
N2176      O2192   1.262       .  A
N2178      O2189   1.262       .  A
N2178      O2190   1.262       .  A
C2180      C2181   1.411       .  A
C2180      N2185   1.422   1_455  S
C2181      C2182   1.405       .  A
C2181      H2186   1.080       .  S
C2182      C2183   1.441       .  A
C2183      C2184   1.396       .  A
C2183      N2187   1.431       .  S
C2184      H2188   1.085       .  S
N2185      O2195   1.259       .  A
N2185      O2196   1.261       .  A
N2187      O2193   1.260       .  A
N2187      O2194   1.261       .  A
C2197      C2198   1.409   1_545  A
C2197      C2202   1.418   1_545  A
C2197      H2207   1.081       .  S
C2198      C2199   1.398       .  A
C2198      C2203   1.493   1_565  S
C2199      C2200   1.390       .  A
C2199      N2204   1.432       .  S
C2200      C2201   1.427       .  A
C2200      H2205   1.073       .  S
C2201      C2202   1.430       .  A
C2202      N2206   1.434   1_565  S
C2203      C2208   1.413   1_545  A
C2203      C2212   1.410       .  A
N2204      O2219   1.262       .  A
N2204      O2220   1.262       .  A
N2206      O2217   1.261   1_545  A
N2206      O2218   1.261       .  A
C2208      C2209   1.399   1_565  A
C2208      N2213   1.426       .  S
C2209      C2210   1.397       .  A
C2209      H2214   1.081       .  S
C2210      C2211   1.406       .  A
C2211      C2212   1.404       .  A
C2211      N2215   1.429       .  S
C2212      H2216   1.084       .  S
N2213      O2223   1.262   1_565  A
N2213      O2224   1.262       .  A
N2215      O2221   1.262       .  A
N2215      O2222   1.261       .  A
C2225      C2226   1.412       .  A
C2225      C2230   1.406       .  A
C2225      H2235   1.080       .  S
C2226      C2227   1.422       .  A
C2226      C2231   1.502       .  S
C2227      C2228   1.397       .  A
C2227      N2232   1.432       .  S
C2228      C2229   1.398       .  A
C2228      H2233   1.082       .  S
C2229      C2230   1.406       .  A
C2230      N2234   1.430       .  S
C2231      C2236   1.422       .  A
C2231      C2240   1.401       .  A
N2232      O2247   1.262       .  A
N2232      O2248   1.260       .  A
N2234      O2245   1.262       .  A
N2234      O2246   1.262       .  A
C2236      C2237   1.408       .  A
C2236      N2241   1.431       .  S
C2237      C2238   1.406       .  A
C2237      H2242   1.084       .  S
C2238      C2239   1.423       .  A
C2239      C2240   1.398       .  A
C2239      N2243   1.433       .  S
C2240      H2244   1.080       .  S
N2241      O2251   1.262       .  A
N2241      O2252   1.261       .  A
N2243      O2249   1.262       .  A
N2243      O2250   1.262       .  A
C2253      C2254   1.412       .  A
C2253      C2258   1.408       .  A
C2253      H2263   1.080       .  S
C2254      C2255   1.424       .  A
C2254      C2259   1.510       .  S
C2255      C2256   1.401       .  A
C2255      N2260   1.430       .  S
C2256      C2257   1.395       .  A
C2256      H2261   1.082       .  S
C2257      C2258   1.407       .  A
C2258      N2262   1.430       .  S
C2259      C2264   1.410       .  A
C2259      C2268   1.397       .  A
N2260      O2275   1.262       .  A
N2260      O2276   1.261       .  A
N2262      O2273   1.261       .  A
N2262      O2274   1.262       .  A
C2264      C2265   1.411       .  A
C2264      N2269   1.430       .  S
C2265      C2266   1.427       .  A
C2265      H2270   1.065       .  S
C2266      C2267   1.441       .  A
C2267      C2268   1.404       .  A
C2267      N2271   1.433       .  S
C2268      H2272   1.082       .  S
N2269      O2279   1.262       .  A
N2269      O2280   1.262       .  A
N2271      O2277   1.261       .  A
N2271      O2278   1.263       .  A
C2281      C2282   1.406       .  A
C2281      C2286   1.417       .  A
C2281      H2291   1.078   1_565  S
C2282      C2283   1.393       .  A
C2282      C2287   1.491       .  S
C2283      C2284   1.392       .  A
C2283      N2288   1.431       .  S
C2284      C2285   1.428       .  A
C2284      H2289   1.077       .  S
C2285      C2286   1.424       .  A
C2286      N2290   1.429   1_565  S
C2287      C2292   1.414       .  A
C2287      C2296   1.406       .  A
N2288      O2303   1.262       .  A
N2288      O2304   1.262       .  A
N2290      O2301   1.263       .  A
N2290      O2302   1.260       .  A
C2292      C2293   1.399   1_565  A
C2292      N2297   1.430       .  S
C2293      C2294   1.400       .  A
C2293      H2298   1.083       .  S
C2294      C2295   1.411   1_545  A
C2295      C2296   1.409       .  A
C2295      N2299   1.428       .  S
C2296      H2300   1.083       .  S
N2297      O2307   1.262   1_565  A
N2297      O2308   1.261       .  A
N2299      O2305   1.262       .  A
N2299      O2306   1.262   1_565  A
C2309      C2310   1.382       .  A
C2309      C2314   1.394       .  A
C2309      H2319   1.085       .  S
C2310      C2311   1.406       .  A
C2310      C2315   1.483       .  S
C2311      C2312   1.405       .  A
C2311      N2316   1.414   1_556  S
C2312      C2313   1.403       .  A
C2312      H2317   1.082       .  S
C2313      C2314   1.442       .  A
C2314      N2318   1.427       .  S
C2315      C2320   1.408       .  A
C2315      C2324   1.402       .  A
N2316      O2331   1.261       .  A
N2316      O2332   1.260       .  A
N2318      O2329   1.260       .  A
N2318      O2330   1.259       .  A
C2320      C2321   1.403       .  A
C2320      N2325   1.429       .  S
C2321      C2322   1.404       .  A
C2321      H2326   1.083       .  S
C2322      C2323   1.408       .  A
C2323      C2324   1.401       .  A
C2323      N2327   1.428   1_556  S
C2324      H2328   1.084       .  S
N2325      O2335   1.262       .  A
N2325      O2336   1.262       .  A
N2327      O2333   1.262   1_554  A
N2327      O2334   1.262       .  A
C2337      C2338   1.412       .  A
C2337      C2342   1.400       .  A
C2337      H2347   1.083       .  S
C2338      C2339   1.419       .  A
C2338      C2343   1.505       .  S
C2339      C2340   1.405       .  A
C2339      N2344   1.435       .  S
C2340      C2341   1.402       .  A
C2340      H2345   1.084       .  S
C2341      C2342   1.406       .  A
C2342      N2346   1.430       .  S
C2343      C2348   1.409       .  A
C2343      C2352   1.389       .  A
N2344      O2359   1.262       .  A
N2344      O2360   1.263       .  A
N2346      O2357   1.262       .  A
N2346      O2358   1.261       .  A
C2348      C2349   1.404       .  A
C2348      N2353   1.407       .  S
C2349      C2350   1.400       .  A
C2349      H2354   1.081       .  S
C2350      C2351   1.446       .  A
C2351      C2352   1.396       .  A
C2351      N2355   1.434       .  S
C2352      H2356   1.083       .  S
N2353      O2363   1.258       .  A
N2353      O2364   1.260       .  A
N2355      O2361   1.259       .  A
N2355      O2362   1.260       .  A
C2365      C2366   1.404       .  A
C2365      C2370   1.405       .  A
C2365      H2375   1.080       .  S
C2366      C2367   1.411       .  A
C2366      C2371   1.510       .  S
C2367      C2368   1.406       .  A
C2367      N2372   1.431       .  S
C2368      C2369   1.419       .  A
C2368      H2373   1.060       .  S
C2369      C2370   1.431       .  A
C2370      N2374   1.432       .  S
C2371      C2376   1.419       .  A
C2371      C2380   1.411       .  A
N2372      O2387   1.262       .  A
N2372      O2388   1.262       .  A
N2374      O2385   1.262       .  A
N2374      O2386   1.263       .  A
C2376      C2377   1.406       .  A
C2376      N2381   1.429       .  S
C2377      C2378   1.401       .  A
C2377      H2382   1.084       .  S
C2378      C2379   1.410       .  A
C2379      C2380   1.406       .  A
C2379      N2383   1.434       .  S
C2380      H2384   1.081       .  S
N2381      O2391   1.261       .  A
N2381      O2392   1.262       .  A
N2383      O2389   1.262       .  A
N2383      O2390   1.262       .  A
C2393      C2394   1.404       .  A
C2393      C2398   1.404   1_556  A
C2393      H2403   1.084   1_556  S
C2394      C2395   1.412       .  A
C2394      C2399   1.497       .  S
C2395      C2396   1.407       .  A
C2395      N2400   1.428       .  S
C2396      C2397   1.405       .  A
C2396      H2401   1.084       .  S
C2397      C2398   1.416   1_556  A
C2398      N2402   1.434       .  S
C2399      C2404   1.405       .  A
C2399      C2408   1.393       .  A
N2400      O2415   1.262       .  A
N2400      O2416   1.262       .  A
N2402      O2413   1.263       .  A
N2402      O2414   1.262       .  A
C2404      C2405   1.411       .  A
C2404      N2409   1.432       .  S
C2405      C2406   1.426       .  A
C2405      H2410   1.067       .  S
C2406      C2407   1.430       .  A
C2407      C2408   1.403       .  A
C2407      N2411   1.432       .  S
C2408      H2412   1.080       .  S
N2409      O2419   1.261       .  A
N2409      O2420   1.263       .  A
N2411      O2417   1.262   1_556  A
N2411      O2418   1.263       .  A
C2421      C2422   1.402       .  A
C2421      C2426   1.418       .  A
C2421      H2431   1.082       .  S
C2422      C2423   1.400       .  A
C2422      C2427   1.497       .  S
C2423      C2424   1.393       .  A
C2423      N2428   1.432       .  S
C2424      C2425   1.429       .  A
C2424      H2429   1.072       .  S
C2425      C2426   1.442       .  A
C2426      N2430   1.431       .  S
C2427      C2432   1.419       .  A
C2427      C2436   1.405       .  A
N2428      O2443   1.262       .  A
N2428      O2444   1.262       .  A
N2430      O2441   1.262       .  A
N2430      O2442   1.262       .  A
C2432      C2433   1.405       .  A
C2432      N2437   1.427       .  S
C2433      C2434   1.398       .  A
C2433      H2438   1.081       .  S
C2434      C2435   1.409       .  A
C2435      C2436   1.400       .  A
C2435      N2439   1.431       .  S
C2436      H2440   1.083       .  S
N2437      O2447   1.262       .  A
N2437      O2448   1.262       .  A
N2439      O2445   1.262       .  A
N2439      O2446   1.262       .  A
C2449      C2450   1.409       .  A
C2449      C2454   1.419       .  A
C2449      H2459   1.079       .  S
C2450      C2451   1.395       .  A
C2450      C2455   1.494       .  S
C2451      C2452   1.388       .  A
C2451      N2456   1.432       .  S
C2452      C2453   1.428       .  A
C2452      H2457   1.070       .  S
C2453      C2454   1.430       .  A
C2454      N2458   1.431       .  S
C2455      C2460   1.411       .  A
C2455      C2464   1.408       .  A
N2456      O2471   1.262       .  A
N2456      O2472   1.262       .  A
N2458      O2469   1.261       .  A
N2458      O2470   1.262       .  A
C2460      C2461   1.405       .  A
C2460      N2465   1.430       .  S
C2461      C2462   1.403       .  A
C2461      H2466   1.084       .  S
C2462      C2463   1.408       .  A
C2463      C2464   1.402       .  A
C2463      N2467   1.434       .  S
C2464      H2468   1.083       .  S
N2465      O2475   1.262       .  A
N2465      O2476   1.262       .  A
N2467      O2473   1.262       .  A
N2467      O2474   1.261       .  A
C2477      C2478   1.387       .  A
C2477      C2482   1.391       .  A
C2477      H2487   1.083       .  S
C2478      C2479   1.423       .  A
C2478      C2483   1.503       .  S
C2479      C2480   1.418       .  A
C2479      N2484   1.437       .  S
C2480      C2481   1.421       .  A
C2480      H2485   1.081       .  S
C2481      C2482   1.441       .  A
C2482      N2486   1.422       .  S
C2483      C2488   1.422       .  A
C2483      C2492   1.410       .  A
N2484      O2499   1.260       .  A
N2484      O2500   1.261       .  A
N2486      O2497   1.261       .  A
N2486      O2498   1.263       .  A
C2488      C2489   1.398       .  A
C2488      N2493   1.432       .  S
C2489      C2490   1.400       .  A
C2489      H2494   1.084       .  S
C2490      C2491   1.410       .  A
C2491      C2492   1.410       .  A
C2491      N2495   1.430       .  S
C2492      H2496   1.080       .  S
N2493      O2503   1.262       .  A
N2493      O2504   1.259       .  A
N2495      O2501   1.262       .  A
N2495      O2502   1.262       .  A
C2505      C2506   1.404       .  A
C2505      C2510   1.415       .  A
C2505      H2515   1.083       .  S
C2506      C2507   1.397       .  A
C2506      C2511   1.497       .  S
C2507      C2508   1.387       .  A
C2507      N2512   1.435       .  S
C2508      C2509   1.427       .  A
C2508      H2513   1.060       .  S
C2509      C2510   1.438       .  A
C2510      N2514   1.427       .  S
C2511      C2516   1.416       .  A
C2511      C2520   1.408       .  A
N2512      O2527   1.262       .  A
N2512      O2528   1.262       .  A
N2514      O2525   1.262       .  A
N2514      O2526   1.262       .  A
C2516      C2517   1.405       .  A
C2516      N2521   1.429       .  S
C2517      C2518   1.400       .  A
C2517      H2522   1.083       .  S
C2518      C2519   1.405       .  A
C2519      C2520   1.395       .  A
C2519      N2523   1.432       .  S
C2520      H2524   1.082       .  S
N2521      O2531   1.262       .  A
N2521      O2532   1.262       .  A
N2523      O2529   1.262       .  A
N2523      O2530   1.262       .  A
C2533      C2534   1.416       .  A
C2533      C2538   1.404       .  A
C2533      H2543   1.082       .  S
C2534      C2535   1.436       .  A
C2534      C2539   1.537       .  S
C2535      C2536   1.426       .  A
C2535      N2540   1.428       .  S
C2536      C2537   1.414       .  A
C2536      H2541   1.084       .  S
C2537      C2538   1.415       .  A
C2538      N2542   1.440       .  S
C2539      C2544   1.426       .  A
C2539      C2548   1.420       .  A
N2540      O2555   1.262       .  A
N2540      O2556   1.263       .  A
N2542      O2553   1.262       .  A
N2542      O2554   1.262       .  A
C2544      C2545   1.410       .  A
C2544      N2549   1.425       .  S
C2545      C2546   1.405       .  A
C2545      H2550   1.083       .  S
C2546      C2547   1.411       .  A
C2547      C2548   1.413       .  A
C2547      N2551   1.429       .  S
C2548      H2552   1.084       .  S
N2549      O2559   1.263       .  A
N2549      O2560   1.261       .  A
N2551      O2557   1.261       .  A
N2551      O2558   1.262       .  A
C2561      C2562   1.405       .  A
C2561      C2566   1.417       .  A
C2561      H2571   1.082       .  S
C2562      C2563   1.390       .  A
C2562      C2567   1.479       .  S
C2563      C2564   1.383       .  A
C2563      N2568   1.430       .  S
C2564      C2565   1.426       .  A
C2564      H2569   1.077       .  S
C2565      C2566   1.429       .  A
C2566      N2570   1.431       .  S
C2567      C2572   1.410       .  A
C2567      C2576   1.400       .  A
N2568      O2583   1.262       .  A
N2568      O2584   1.262       .  A
N2570      O2581   1.261       .  A
N2570      O2582   1.262       .  A
C2572      C2573   1.398       .  A
C2572      N2577   1.430       .  S
C2573      C2574   1.401       .  A
C2573      H2578   1.084       .  S
C2574      C2575   1.418       .  A
C2575      C2576   1.407       .  A
C2575      N2579   1.442       .  S
C2576      H2580   1.084       .  S
N2577      O2587   1.262       .  A
N2577      O2588   1.261       .  A
N2579      O2585   1.263       .  A
N2579      O2586   1.262       .  A
C2589      C2590   1.410       .  A
C2589      C2594   1.410       .  A
C2589      H2599   1.083       .  S
C2590      C2591   1.416       .  A
C2590      C2595   1.519       .  S
C2591      C2592   1.411       .  A
C2591      N2596   1.428       .  S
C2592      C2593   1.422       .  A
C2592      H2597   1.084       .  S
C2593      C2594   1.426       .  A
C2594      N2598   1.422       .  S
C2595      C2600   1.427       .  A
C2595      C2604   1.415       .  A
N2596      O2611   1.258       .  A
N2596      O2612   1.263       .  A
N2598      O2609   1.262       .  A
N2598      O2610   1.262       .  A
C2600      C2601   1.405       .  A
C2600      N2605   1.427       .  S
C2601      C2602   1.399       .  A
C2601      H2606   1.084       .  S
C2602      C2603   1.406       .  A
C2603      C2604   1.404       .  A
C2603      N2607   1.429       .  S
C2604      H2608   1.083       .  S
N2605      O2615   1.261       .  A
N2605      O2616   1.262       .  A
N2607      O2613   1.262       .  A
N2607      O2614   1.262       .  A
C2617      C2618   1.401       .  A
C2617      C2622   1.394       .  A
C2617      H2627   1.074       .  S
C2618      C2619   1.426       .  A
C2618      C2623   1.509       .  S
C2619      C2620   1.413       .  A
C2619      N2624   1.432       .  S
C2620      C2621   1.400       .  A
C2620      H2625   1.080       .  S
C2621      C2622   1.431       .  A
C2622      N2626   1.438       .  S
C2623      C2628   1.428       .  A
C2623      C2632   1.414       .  A
N2624      O2639   1.261       .  A
N2624      O2640   1.261       .  A
N2626      O2637   1.263       .  A
N2626      O2638   1.261       .  A
C2628      C2629   1.395       .  A
C2628      N2633   1.431       .  S
C2629      C2630   1.396       .  A
C2629      H2634   1.085       .  S
C2630      C2631   1.405       .  A
C2631      C2632   1.407       .  A
C2631      N2635   1.431       .  S
C2632      H2636   1.080       .  S
N2633      O2643   1.263       .  A
N2633      O2644   1.260       .  A
N2635      O2641   1.261       .  A
N2635      O2642   1.262       .  A
C2645      C2646   1.382       .  A
C2645      C2650   1.400       .  A
C2645      H2655   1.084       .  S
C2646      C2647   1.409       .  A
C2646      C2651   1.494       .  S
C2647      C2648   1.397       .  A
C2647      N2652   1.406       .  S
C2648      C2649   1.390       .  A
C2648      H2653   1.078       .  S
C2649      C2650   1.455       .  A
C2650      N2654   1.434       .  S
C2651      C2656   1.419       .  A
C2651      C2660   1.403       .  A
N2652      O2667   1.261       .  A
N2652      O2668   1.258       .  A
N2654      O2665   1.262       .  A
N2654      O2666   1.259       .  A
C2656      C2657   1.403       .  A
C2656      N2661   1.430       .  S
C2657      C2658   1.398       .  A
C2657      H2662   1.084       .  S
C2658      C2659   1.408       .  A
C2659      C2660   1.400       .  A
C2659      N2663   1.430       .  S
C2660      H2664   1.083       .  S
N2661      O2671   1.262       .  A
N2661      O2672   1.263       .  A
N2663      O2669   1.262       .  A
N2663      O2670   1.261       .  A
C2673      C2674   1.409       .  A
C2673      C2678   1.404       .  A
C2673      H2683   1.083       .  S
C2674      C2675   1.413       .  A
C2674      C2679   1.494       .  S
C2675      C2676   1.399       .  A
C2675      N2680   1.427       .  S
C2676      C2677   1.397       .  A
C2676      H2681   1.082       .  S
C2677      C2678   1.407       .  A
C2678      N2682   1.430       .  S
C2679      C2684   1.397       .  A
C2679      C2688   1.401       .  A
N2680      O2695   1.262       .  A
N2680      O2696   1.261       .  A
N2682      O2693   1.261       .  A
N2682      O2694   1.262       .  A
C2684      C2685   1.392       .  A
C2684      N2689   1.431       .  S
C2685      C2686   1.429       .  A
C2685      H2690   1.070       .  S
C2686      C2687   1.444       .  A
C2687      C2688   1.411       .  A
C2687      N2691   1.432       .  S
C2688      H2692   1.083       .  S
N2689      O2699   1.262       .  A
N2689      O2700   1.262       .  A
N2691      O2697   1.262       .  A
N2691      O2698   1.262       .  A
C2701      C2702   1.410       .  A
C2701      C2706   1.422       .  A
C2701      H2711   1.082       .  S
C2702      C2703   1.400       .  A
C2702      C2707   1.506       .  S
C2703      C2704   1.400       .  A
C2703      N2708   1.430       .  S
C2704      C2705   1.430       .  A
C2704      H2709   1.075       .  S
C2705      C2706   1.430       .  A
C2706      N2710   1.431       .  S
C2707      C2712   1.417       .  A
C2707      C2716   1.412       .  A
N2708      O2723   1.262       .  A
N2708      O2724   1.262       .  A
N2710      O2721   1.261       .  A
N2710      O2722   1.262       .  A
C2712      C2713   1.400       .  A
C2712      N2717   1.423       .  S
C2713      C2714   1.395       .  A
C2713      H2718   1.084       .  S
C2714      C2715   1.408       .  A
C2715      C2716   1.410       .  A
C2715      N2719   1.429       .  S
C2716      H2720   1.083       .  S
N2717      O2727   1.261       .  A
N2717      O2728   1.262       .  A
N2719      O2725   1.262       .  A
N2719      O2726   1.261       .  A
C2729      C2730   1.410       .  A
C2729      C2734   1.413       .  A
C2729      H2739   1.083       .  S
C2730      C2731   1.418       .  A
C2730      C2735   1.499       .  S
C2731      C2732   1.398       .  A
C2731      N2736   1.430       .  S
C2732      C2733   1.400       .  A
C2732      H2737   1.084       .  S
C2733      C2734   1.411       .  A
C2734      N2738   1.432       .  S
C2735      C2740   1.415       .  A
C2735      C2744   1.379       .  A
N2736      O2751   1.263       .  A
N2736      O2752   1.260       .  A
N2738      O2749   1.262       .  A
N2738      O2750   1.261       .  A
C2740      C2741   1.424       .  A
C2740      N2745   1.430       .  S
C2741      C2742   1.427       .  A
C2741      H2746   1.082       .  S
C2742      C2743   1.441       .  A
C2743      C2744   1.390       .  A
C2743      N2747   1.416       .  S
C2744      H2748   1.085       .  S
N2745      O2755   1.262       .  A
N2745      O2756   1.260       .  A
N2747      O2753   1.263       .  A
N2747      O2754   1.260       .  A
C2757      C2758   1.407       .  A
C2757      C2762   1.411       .  A
C2757      H2767   1.075       .  S
C2758      C2759   1.410       .  A
C2758      C2763   1.491       .  S
C2759      C2760   1.395       .  A
C2759      N2764   1.429       .  S
C2760      C2761   1.419       .  A
C2760      H2765   1.082       .  S
C2761      C2762   1.418       .  A
C2762      N2766   1.437       .  S
C2763      C2768   1.417       .  A
C2763      C2772   1.403       .  A
N2764      O2779   1.262       .  A
N2764      O2780   1.262       .  A
N2766      O2777   1.263       .  A
N2766      O2778   1.261       .  A
C2768      C2769   1.403       .  A
C2768      N2773   1.431       .  S
C2769      C2770   1.402       .  A
C2769      H2774   1.084       .  S
C2770      C2771   1.413       .  A
C2771      C2772   1.402       .  A
C2771      N2775   1.443       .  S
C2772      H2776   1.081       .  S
N2773      O2783   1.261       .  A
N2773      O2784   1.261       .  A
N2775      O2781   1.263       .  A
N2775      O2782   1.263       .  A
C2785      C2786   1.399       .  A
C2785      C2790   1.402       .  A
C2785      H2795   1.082       .  S
C2786      C2787   1.408       .  A
C2786      C2791   1.488       .  S
C2787      C2788   1.395       .  A
C2787      N2792   1.433       .  S
C2788      C2789   1.417       .  A
C2788      H2793   1.065       .  S
C2789      C2790   1.429       .  A
C2790      N2794   1.432       .  S
C2791      C2796   1.420       .  A
C2791      C2800   1.405       .  A
N2792      O2807   1.262       .  A
N2792      O2808   1.262       .  A
N2794      O2805   1.262       .  A
N2794      O2806   1.262       .  A
C2796      C2797   1.399       .  A
C2796      N2801   1.431       .  S
C2797      C2798   1.396       .  A
C2797      H2802   1.082       .  S
C2798      C2799   1.404       .  A
C2799      C2800   1.396       .  A
C2799      N2803   1.431       .  S
C2800      H2804   1.083       .  S
N2801      O2811   1.262       .  A
N2801      O2812   1.262       .  A
N2803      O2809   1.261       .  A
N2803      O2810   1.262       .  A
C2813      C2814   1.409       .  A
C2813      C2818   1.417       .  A
C2813      H2823   1.082       .  S
C2814      C2815   1.420       .  A
C2814      C2819   1.522       .  S
C2815      C2816   1.415       .  A
C2815      N2820   1.429       .  S
C2816      C2817   1.406       .  A
C2816      H2821   1.084       .  S
C2817      C2818   1.418       .  A
C2818      N2822   1.432       .  S
C2819      C2824   1.411       .  A
C2819      C2828   1.392       .  A
N2820      O2835   1.262       .  A
N2820      O2836   1.262       .  A
N2822      O2833   1.262       .  A
N2822      O2834   1.262       .  A
C2824      C2825   1.405       .  A
C2824      N2829   1.398       .  S
C2825      C2826   1.389       .  A
C2825      H2830   1.080       .  S
C2826      C2827   1.450       .  A
C2827      C2828   1.410       .  A
C2827      N2831   1.427       .  S
C2828      H2832   1.083       .  S
N2829      O2839   1.258       .  A
N2829      O2840   1.258       .  A
N2831      O2837   1.260       .  A
N2831      O2838   1.257       .  A
C2841      C2842   1.400       .  A
C2841      C2846   1.399       .  A
C2841      H2851   1.084       .  S
C2842      C2843   1.407       .  A
C2842      C2847   1.475       .  S
C2843      C2844   1.405       .  A
C2843      N2848   1.430       .  S
C2844      C2845   1.407       .  A
C2844      H2849   1.084       .  S
C2845      C2846   1.413       .  A
C2846      N2850   1.436       .  S
C2847      C2852   1.388       .  A
C2847      C2856   1.403       .  A
N2848      O2863   1.261       .  A
N2848      O2864   1.262       .  A
N2850      O2861   1.262       .  A
N2850      O2862   1.263       .  A
C2852      C2853   1.379       .  A
C2852      N2857   1.432       .  S
C2853      C2854   1.421       .  A
C2853      H2858   1.063       .  S
C2854      C2855   1.433       .  A
C2855      C2856   1.417       .  A
C2855      N2859   1.424       .  S
C2856      H2860   1.082       .  S
N2857      O2867   1.262       .  A
N2857      O2868   1.262       .  A
N2859      O2865   1.261       .  A
N2859      O2866   1.262       .  A
C2869      C2870   1.411       .  A
C2869      C2874   1.402       .  A
C2869      H2879   1.084       .  S
C2870      C2871   1.414       .  A
C2870      C2875   1.495       .  S
C2871      C2872   1.407       .  A
C2871      N2876   1.430       .  S
C2872      C2873   1.404       .  A
C2872      H2877   1.084       .  S
C2873      C2874   1.409       .  A
C2874      N2878   1.442       .  S
C2875      C2880   1.410       .  A
C2875      C2884   1.383       .  A
N2876      O2891   1.262       .  A
N2876      O2892   1.262       .  A
N2878      O2889   1.263       .  A
N2878      O2890   1.263       .  A
C2880      C2881   1.411       .  A
C2880      N2885   1.430       .  S
C2881      C2882   1.421       .  A
C2881      H2886   1.078       .  S
C2882      C2883   1.461       .  A
C2883      C2884   1.390       .  A
C2883      N2887   1.432       .  S
C2884      H2888   1.086       .  S
N2885      O2895   1.260       .  A
N2885      O2896   1.261       .  A
N2887      O2893   1.263       .  A
N2887      O2894   1.263       .  A
C2897      C2898   1.413       .  A
C2897      C2902   1.415       .  A
C2897      H2907   1.082       .  S
C2898      C2899   1.420       .  A
C2898      C2903   1.518       .  S
C2899      C2900   1.412       .  A
C2899      N2904   1.430       .  S
C2900      C2901   1.419       .  A
C2900      H2905   1.082       .  S
C2901      C2902   1.400       .  A
C2902      N2906   1.439       .  S
C2903      C2908   1.424       .  A
C2903      C2912   1.413       .  A
N2904      O2919   1.261       .  A
N2904      O2920   1.263       .  A
N2906      O2917   1.261       .  A
N2906      O2918   1.261       .  A
C2908      C2909   1.408       .  A
C2908      N2913   1.430       .  S
C2909      C2910   1.404       .  A
C2909      H2914   1.083       .  S
C2910      C2911   1.410       .  A
C2911      C2912   1.412       .  A
C2911      N2915   1.428       .  S
C2912      H2916   1.084       .  S
N2913      O2923   1.262       .  A
N2913      O2924   1.260       .  A
N2915      O2921   1.261       .  A
N2915      O2922   1.262       .  A
C2925      C2926   1.392       .  A
C2925      C2930   1.398       .  A
C2925      H2935   1.085       .  S
C2926      C2927   1.417       .  A
C2926      C2931   1.501       .  S
C2927      C2928   1.411       .  A
C2927      N2932   1.437       .  S
C2928      C2929   1.425       .  A
C2928      H2933   1.077       .  S
C2929      C2930   1.444       .  A
C2930      N2934   1.425       .  S
C2931      C2936   1.422       .  A
C2931      C2940   1.406       .  A
N2932      O2947   1.261       .  A
N2932      O2948   1.261       .  A
N2934      O2945   1.262       .  A
N2934      O2946   1.262       .  A
C2936      C2937   1.407       .  A
C2936      N2941   1.438       .  S
C2937      C2938   1.403       .  A
C2937      H2942   1.084       .  S
C2938      C2939   1.411       .  A
C2939      C2940   1.407       .  A
C2939      N2943   1.433       .  S
C2940      H2944   1.080       .  S
N2941      O2951   1.263       .  A
N2941      O2952   1.262       .  A
N2943      O2949   1.262       .  A
N2943      O2950   1.263       .  A
C2953      C2954   1.410       .  A
C2953      C2958   1.422       .  A
C2953      H2963   1.082       .  S
C2954      C2955   1.400       .  A
C2954      C2959   1.500       .  S
C2955      C2956   1.391       .  A
C2955      N2960   1.431       .  S
C2956      C2957   1.426       .  A
C2956      H2961   1.074       .  S
C2957      C2958   1.432       .  A
C2958      N2962   1.433       .  S
C2959      C2964   1.414       .  A
C2959      C2968   1.407       .  A
N2960      O2975   1.262       .  A
N2960      O2976   1.262       .  A
N2962      O2973   1.261       .  A
N2962      O2974   1.260       .  A
C2964      C2965   1.408       .  A
C2964      N2969   1.428       .  S
C2965      C2966   1.402       .  A
C2965      H2970   1.082       .  S
C2966      C2967   1.412       .  A
C2967      C2968   1.406       .  A
C2967      N2971   1.431       .  S
C2968      H2972   1.084       .  S
N2969      O2979   1.262       .  A
N2969      O2980   1.262       .  A
N2971      O2977   1.262       .  A
N2971      O2978   1.262       .  A
C2981      C2982   1.407       .  A
C2981      C2986   1.416       .  A
C2981      H2991   1.074       .  S
C2982      C2983   1.393       .  A
C2982      C2987   1.496       .  S
C2983      C2984   1.393       .  A
C2983      N2988   1.430       .  S
C2984      C2985   1.431       .  A
C2984      H2989   1.073       .  S
C2985      C2986   1.428       .  A
C2986      N2990   1.429       .  S
C2987      C2992   1.413       .  A
C2987      C2996   1.401       .  A
N2988      O3003   1.262       .  A
N2988      O3004   1.262       .  A
N2990      O3001   1.261       .  A
N2990      O3002   1.262       .  A
C2992      C2993   1.410       .  A
C2992      N2997   1.432       .  S
C2993      C2994   1.406       .  A
C2993      H2998   1.083       .  S
C2994      C2995   1.420       .  A
C2995      C2996   1.410       .  A
C2995      N2999   1.442       .  S
C2996      H3000   1.082       .  S
N2997      O3007   1.262       .  A
N2997      O3008   1.262       .  A
N2999      O3005   1.263       .  A
N2999      O3006   1.263       .  A
C3009      C3010   1.410       .  A
C3009      C3014   1.414       .  A
C3009      H3019   1.081       .  S
C3010      C3011   1.416       .  A
C3010      C3015   1.521       .  S
C3011      C3012   1.403       .  A
C3011      N3016   1.431       .  S
C3012      C3013   1.418       .  A
C3012      H3017   1.067       .  S
C3013      C3014   1.425       .  A
C3014      N3018   1.430       .  S
C3015      C3020   1.427       .  A
C3015      C3024   1.414       .  A
N3016      O3031   1.263       .  A
N3016      O3032   1.262       .  A
N3018      O3029   1.262       .  A
N3018      O3030   1.262       .  A
C3020      C3021   1.409       .  A
C3020      N3025   1.429       .  S
C3021      C3022   1.397       .  A
C3021      H3026   1.083       .  S
C3022      C3023   1.405       .  A
C3023      C3024   1.404       .  A
C3023      N3027   1.432       .  S
C3024      H3028   1.079       .  S
N3025      O3035   1.262       .  A
N3025      O3036   1.261       .  A
N3027      O3033   1.262       .  A
N3027      O3034   1.261       .  A
C3037      C3038   1.410       .  A
C3037      C3042   1.416       .  A
C3037      H3047   1.083       .  S
C3038      C3039   1.405       .  A
C3038      C3043   1.497       .  S
C3039      C3040   1.394       .  A
C3039      N3044   1.431       .  S
C3040      C3041   1.420       .  A
C3040      H3045   1.080       .  S
C3041      C3042   1.425       .  A
C3042      N3046   1.435       .  S
C3043      C3048   1.410       .  A
C3043      C3052   1.407       .  A
N3044      O3059   1.262       .  A
N3044      O3060   1.262       .  A
N3046      O3057   1.262       .  A
N3046      O3058   1.261       .  A
C3048      C3049   1.404       .  A
C3048      N3053   1.429       .  S
C3049      C3050   1.404       .  A
C3049      H3054   1.082       .  S
C3050      C3051   1.416       .  A
C3051      C3052   1.409       .  A
C3051      N3055   1.442       .  S
C3052      H3056   1.082       .  S
N3053      O3063   1.262       .  A
N3053      O3064   1.261       .  A
N3055      O3061   1.262       .  A
N3055      O3062   1.262       .  A
C3065      C3066   1.389       .  A
C3065      C3070   1.403       .  A
C3065      H3075   1.082       .  S
C3066      C3067   1.422       .  A
C3066      C3071   1.526       .  S
C3067      C3068   1.416       .  A
C3067      N3072   1.419       .  S
C3068      C3069   1.408       .  A
C3068      H3073   1.076       .  S
C3069      C3070   1.448       .  A
C3070      N3074   1.428       .  S
C3071      C3076   1.422       .  A
C3071      C3080   1.413       .  A
N3072      O3087   1.261       .  A
N3072      O3088   1.254       .  A
N3074      O3085   1.262       .  A
N3074      O3086   1.260       .  A
C3076      C3077   1.409       .  A
C3076      N3081   1.429       .  S
C3077      C3078   1.403       .  A
C3077      H3082   1.084       .  S
C3078      C3079   1.413       .  A
C3079      C3080   1.412       .  A
C3079      N3083   1.430       .  S
C3080      H3084   1.083       .  S
N3081      O3091   1.261       .  A
N3081      O3092   1.262       .  A
N3083      O3089   1.262       .  A
N3083      O3090   1.262       .  A
