geometry optimzed in LAMMPS
_audit_creation_date              2020-12-01 
_audit_creation_method            'lammps2cif' 
_symmetry_space_group_name_H-M    'P1' 
_symmetry_Int_Tables_number       1 
_symmetry_cell_setting            triclinic 
loop_ 
_symmetry_equiv_pos_as_xyz 
  x,y,z 
_cell_length_a                    20.33565171 
_cell_length_b                    47.5527752344383 
_cell_length_c                    23.64786291027921 
_cell_angle_alpha                 90.03653146797035 
_cell_angle_beta                  90.05414352522922 
_cell_angle_gamma                 89.97929662185427 
loop_ 
_atom_site_label 
_atom_site_type_symbol 
_atom_site_fract_x 
_atom_site_fract_y 
_atom_site_fract_z 
_atom_site_charge 
C1          C  0.20604236  0.30474290  0.28458411     0.05800
C2          C  0.20621729  0.33436750  0.28412640    -0.10300
C3          C  0.24951081  0.34934868  0.24861910     0.03300
C4          C  0.29284543  0.33433754  0.21314324    -0.08900
C5          C  0.29310687  0.30471384  0.21274449     0.05800
C6          C  0.24959769  0.29010095  0.24867892    -0.08300
H7          H  0.17294410  0.34580682  0.31156197     0.11400
H8          H  0.32609656  0.34575391  0.18569515     0.08900
H9          H  0.24963331  0.26730185  0.24870164     0.08800
C10         C  0.20595644  0.42533767  0.21271840     0.05800
C11         C  0.24960108  0.43995647  0.24862072    -0.10300
C12         C  0.29320752  0.42532368  0.28451688     0.03300
C13         C  0.29295334  0.39570080  0.28409368    -0.08900
C14         C  0.24952092  0.38070993  0.24862326     0.05800
C15         C  0.20612923  0.39571248  0.21314584    -0.08300
H16         H  0.24963595  0.96275632  0.24862342     0.11400
H17         H  0.32628081  0.38427050  0.31152090     0.08900
H18         H  0.17278239  0.38428975  0.18571172     0.08800
O19         O  0.65288211  0.46213885  0.49416419    -0.78200
O20         O  0.40503853  0.01818163  0.58163977    -0.62900
O21         O  0.51946930  0.46571543  0.51257849    -1.09500
C22         C  0.51801380  0.03436988  0.36622464     1.08700
O23         O  0.34635443  0.01805318  0.50318433    -0.76100
O24         O  0.38038731  0.99762473  0.40109248    -0.63700
Ni25       Ni  0.59310670  0.45060871  0.55225933     1.34900
C26         C  0.40843839  0.47461784  0.38893713     0.87400
O27         O  0.44936838  0.46722695  0.61331651    -0.76700
O28         O  0.53631742  0.43759101  0.61144963    -0.86900
C29         C  0.35496750  0.02587798  0.55385737     0.87000
O30         O  0.61882671  0.48257052  0.59625096    -0.65100
O31         O  0.46286258  0.04260841  0.38587180    -0.84400
C32         C  0.59080451  0.50558720  0.60838429     0.87800
C33         C  0.48118207  0.44584107  0.63111015     1.09400
H34         H  0.50660582  0.03034149  0.49576949     0.41200
O35         O  0.47973835  0.01449595  0.48475994    -1.07100
O36         O  0.46627851  0.46847559  0.40590407    -0.63700
Ni37       Ni  0.53506614  0.48853553  0.44720660     1.26300
O38         O  0.53296864  0.01173853  0.59141499    -0.64000
O39         O  0.54985457  0.01299482  0.38403739    -0.76200
C40         C  0.64427550  0.45435131  0.44346569     0.87200
O41         O  0.59418666  0.46204384  0.41570706    -0.63400
Ni42       Ni  0.40609236  0.02959057  0.44507462     1.27400
Ni43       Ni  0.46415160  0.49168075  0.55013963     1.26100
H44         H  0.49259569  0.44987449  0.50156915     0.41700
C45         C  0.70600092  0.17556526  0.78434221     0.05800
C46         C  0.70630227  0.14594291  0.78389677    -0.10300
C47         C  0.74965874  0.13095586  0.74840159     0.03300
C48         C  0.79293469  0.14596123  0.71291864    -0.08900
C49         C  0.79306930  0.17558718  0.71250895     0.05800
C50         C  0.74948953  0.19020356  0.74843350    -0.08300
H51         H  0.67307557  0.13450855  0.81133639     0.11400
H52         H  0.82623722  0.13453992  0.68547913     0.08900
H53         H  0.74943002  0.21300269  0.74845709     0.08800
C54         C  0.79334779  0.05500223  0.78444775     0.05800
C55         C  0.74972966  0.04034790  0.74858127    -0.10300
C56         C  0.70610731  0.05494566  0.71264002     0.03300
C57         C  0.70632927  0.08457001  0.71298033    -0.08900
C58         C  0.74973972  0.09959465  0.74841486     0.05800
C59         C  0.79314154  0.08462599  0.78393836    -0.08300
H60         H  0.74972060  0.51754846  0.74865395     0.11400
H61         H  0.67298240  0.09597538  0.68552873     0.08900
H62         H  0.82645985  0.09607383  0.81135604     0.08800
C63         C  0.60978144  0.13833942  0.22793778     0.05800
C64         C  0.67851440  0.13838806  0.22828570    -0.10300
C65         C  0.71322735  0.11507249  0.24900877     0.03300
C66         C  0.67843437  0.09177922  0.26962946    -0.08900
C67         C  0.60969874  0.09187213  0.26975531     0.05800
C68         C  0.57524213  0.11511685  0.24879168    -0.08300
H69         H  0.70496370  0.15624777  0.21114250     0.11400
H70         H  0.70481731  0.07389716  0.28683232     0.08900
H71         H  0.52190849  0.11513209  0.24869658     0.08800
C72         C  0.88914752  0.09175336  0.22821826     0.05800
C73         C  0.82041329  0.09168929  0.22851087    -0.10300
C74         C  0.78569669  0.11504396  0.24905523     0.03300
C75         C  0.82048569  0.13838849  0.26956131    -0.08900
C76         C  0.88921885  0.13831277  0.26973837     0.05800
C77         C  0.92368102  0.11503022  0.24895048    -0.08300
H78         H  0.79396613  0.07378951  0.21144631     0.11400
H79         H  0.79410170  0.15630231  0.28663136     0.08900
H80         H  0.97701487  0.11502873  0.24889195     0.08800
O81         O  0.84654500  0.26831770  0.49383688    -0.78200
O82         O  0.09393866  0.21205522  0.58179500    -0.62900
O83         O  0.97986040  0.26462709  0.51257348    -1.09500
C84         C  0.98100934  0.19591984  0.36611603     1.08700
O85         O  0.15260247  0.21213049  0.50344527    -0.76100
O86         O  0.11882100  0.23253180  0.40125028    -0.63700
Ni87       Ni  0.90625347  0.27979674  0.55212881     1.34900
C88         C  0.09090663  0.25556385  0.38906005     0.87400
O89         O  0.04989411  0.26308064  0.61345678    -0.76700
O90         O  0.96302470  0.29276163  0.61149614    -0.86900
C91         C  0.14387613  0.20424460  0.55402789     0.87000
O92         O  0.88031240  0.24786062  0.59598926    -0.65100
O93         O  0.03610091  0.18762953  0.38586562    -0.84400
C94         C  0.90825280  0.22483715  0.60820143     0.87800
C95         C  0.01812942  0.28448465  0.63124081     1.09400
H96         H  0.99235018  0.19998484  0.49568515     0.41200
O97         O  0.01931972  0.21579786  0.48475293    -1.07100
O98         O  0.03311845  0.26178061  0.40597243    -0.63700
Ni99       Ni  0.96418349  0.24180769  0.44711170     1.26300
O100        O  0.96607835  0.21864080  0.59134957    -0.64000
O101        O  0.94929191  0.21734231  0.38387323    -0.76200
C102        C  0.85529299  0.27616296  0.44322930     0.87200
O103        O  0.90527879  0.26836720  0.41551574    -0.63400
Ni104      Ni  0.09290384  0.20061736  0.44518638     1.27400
Ni105      Ni  0.03501101  0.23861774  0.55021399     1.26100
H106        H  0.00681970  0.28044397  0.50164774     0.41700
C107        C  0.38931433  0.34191482  0.76947880     0.05800
C108        C  0.32058128  0.34189739  0.76922076    -0.10300
C109        C  0.28589490  0.36522655  0.74852425     0.03300
C110        C  0.32071373  0.38850185  0.72785663    -0.08900
C111        C  0.38944821  0.38837794  0.72764866     0.05800
C112        C  0.42387807  0.36511926  0.74857328    -0.08300
H113        H  0.29411791  0.32404928  0.78639743     0.11400
H114        H  0.29434632  0.40639231  0.71067245     0.08900
H115        H  0.47721201  0.36508008  0.74859780     0.08800
C116        C  0.10986749  0.34205769  0.72774000     0.05800
C117        C  0.17859961  0.34195156  0.72797236    -0.10300
C118        C  0.21342685  0.36528096  0.74849591     0.03300
C119        C  0.17875039  0.38865166  0.76901831    -0.08900
C120        C  0.11001541  0.38861795  0.76925885     0.05800
C121        C  0.07544286  0.36535654  0.74849735    -0.08300
H122        H  0.20495914  0.32402780  0.71091699     0.11400
H123        H  0.20522430  0.40654183  0.78609387     0.08900
H124        H  0.02210902  0.36538183  0.74850934     0.08800
O125        O  0.84648002  0.46209014  0.00292407    -0.78200
O126        O  0.09406036  0.01843524  0.91598317    -0.62900
O127        O  0.97988694  0.46581604  0.98460770    -1.09500
C128        C  0.98081190  0.03429279  0.13147146     1.08700
O129        O  0.15274111  0.01835454  0.99445319    -0.76100
O130        O  0.11873213  0.99770011  0.09634358    -0.63700
Ni131      Ni  0.90636188  0.45070852  0.94475169     1.34900
C132        C  0.09076536  0.47467313  0.10837598     0.87400
O133        O  0.05012680  0.46747627  0.88395259    -0.76700
O134        O  0.96324847  0.43782802  0.88546605    -0.86900
C135        C  0.14406986  0.02617007  0.94379631     0.87000
O136        O  0.88048655  0.48271493  0.90101166    -0.65100
O137        O  0.03594693  0.04258261  0.11193345    -0.84400
C138        C  0.90846102  0.50573930  0.88897604     0.87800
C139        C  0.01838616  0.44611630  0.86593123     1.09400
H140        H  0.99235660  0.03043833  0.00185384     0.41200
O141        O  0.01930567  0.01460270  0.01278251    -1.07100
O142        O  0.03295723  0.46851621  0.09135728    -0.63700
Ni143      Ni  0.96408870  0.48855623  0.05012288     1.26300
O144        O  0.96625521  0.01189889  0.90602046    -0.64000
O145        O  0.94906998  0.01293409  0.11344791    -0.76200
C146        C  0.85514026  0.45423775  0.05355730     0.87200
O147        O  0.90512690  0.46197397  0.08140440    -0.63400
Ni148      Ni  0.09283320  0.02971419  0.05263354     1.27400
Ni149      Ni  0.03510512  0.49185925  0.94727173     1.26100
H150        H  0.00683417  0.44997876  0.99553875     0.41700
C151        C  0.26456025  0.09042588  0.62841611     0.05800
C152        C  0.26584486  0.09054364  0.68732747    -0.10300
C153        C  0.24888055  0.11491676  0.71735195     0.03300
C154        C  0.23180680  0.13924431  0.68726260    -0.08900
C155        C  0.23304259  0.13930160  0.62835965     0.05800
C156        C  0.24878627  0.11484900  0.59858047    -0.08300
H157        H  0.28143268  0.07174284  0.70948829     0.11400
H158        H  0.21632738  0.15808281  0.70937407     0.08900
H159        H  0.24882640  0.11483344  0.55271619     0.08800
C160        C  0.26527344  0.13954258  0.86857547     0.05800
C161        C  0.26627727  0.13937896  0.80966937    -0.10300
C162        C  0.24914633  0.11498998  0.77974960     0.03300
C163        C  0.23231449  0.09067540  0.80994478    -0.08900
C164        C  0.23385024  0.09066771  0.86885251     0.05800
C165        C  0.24969118  0.11514527  0.89851409    -0.08300
H166        H  0.28169445  0.15816982  0.78742751     0.11400
H167        H  0.21671736  0.07182657  0.78792222     0.08900
H168        H  0.24988633  0.11520754  0.94437831     0.08800
O169        O  0.65263501  0.26815920  0.00342177    -0.78200
O170        O  0.40519944  0.21199486  0.91545465    -0.62900
O171        O  0.51930738  0.26451635  0.98478902    -1.09500
C172        C  0.51823668  0.19581823  0.13108007     1.08700
O173        O  0.34651656  0.21203306  0.99381248    -0.76100
O174        O  0.38039732  0.23246790  0.09599531    -0.63700
Ni175      Ni  0.59285926  0.27968198  0.94523024     1.34900
C176        C  0.40833825  0.25548164  0.10826901     0.87400
O177        O  0.44919586  0.26300149  0.88394322    -0.76700
O178        O  0.53601666  0.29267996  0.88595816    -0.86900
C179        C  0.35519720  0.20423151  0.94314572     0.87000
O180        O  0.61875074  0.24776004  0.90120921    -0.65100
O181        O  0.46313382  0.18754968  0.11132354    -0.84400
C182        C  0.59082090  0.22474205  0.88894927     0.87800
C183        C  0.48091918  0.28440383  0.86620352     1.09400
H184        H  0.50682818  0.19987316  0.00148178     0.41200
O185        O  0.47987521  0.21569317  0.01247376    -1.07100
O186        O  0.46614718  0.26166995  0.09140493    -0.63700
Ni187      Ni  0.53505196  0.24168241  0.05016451     1.26300
O188        O  0.53303713  0.21854198  0.90585424    -0.64000
O189        O  0.54998872  0.21721012  0.11332655    -0.76200
C190        C  0.64396145  0.27600004  0.05406323     0.87200
O191        O  0.59400342  0.26821986  0.08179912    -0.63400
Ni192      Ni  0.40630896  0.20053313  0.05202186     1.27400
Ni193      Ni  0.46413854  0.23852746  0.94710024     1.26100
H194        H  0.49234755  0.28033417  0.99578479     0.41700
C195        C  0.76596087  0.34098190  0.36867067     0.05800
C196        C  0.75032700  0.36543875  0.39847161    -0.10300
C197        C  0.73458960  0.38987343  0.36866811     0.03300
C198        C  0.73322427  0.38976472  0.30975875    -0.08900
C199        C  0.75009542  0.36538692  0.27970558     0.05800
C200        C  0.76713174  0.34104443  0.30976687    -0.08300
H201        H  0.75034902  0.36544902  0.44433613     0.11400
H202        H  0.71766560  0.40857759  0.28762409     0.08900
H203        H  0.78254836  0.32220247  0.28763497     0.08800
C204        C  0.73370925  0.34080386  0.12845060     0.05800
C205        C  0.74939035  0.36519934  0.09853784    -0.10300
C206        C  0.76527261  0.38966336  0.12823448     0.03300
C207        C  0.76674366  0.38964228  0.18714312    -0.08900
C208        C  0.74982572  0.36533086  0.21730768     0.05800
C209        C  0.73265425  0.34095791  0.18735702    -0.08300
H210        H  0.74924664  0.36514544  0.05267355     0.11400
H211        H  0.78237742  0.40847771  0.20919293     0.08900
H212        H  0.71718244  0.32216881  0.20957677     0.08800
C213        C  0.68720688  0.29609521  0.07822289    -0.10600
C214        C  0.71343025  0.31600673  0.09942213    -0.12200
C215        C  0.28556760  0.16433868  0.89759330    -0.10600
C216        C  0.31185409  0.18421205  0.91887314    -0.12200
C217        C  0.81173962  0.43422109  0.07765710    -0.10600
C218        C  0.78546077  0.41437756  0.09897016    -0.12200
C219        C  0.21376257  0.06595645  0.89817271    -0.10600
C220        C  0.18751218  0.04613765  0.91959870    -0.12200
C221        C  0.04835856  0.42900680  0.82352210    -0.10600
C222        C  0.07541485  0.41154374  0.79506798    -0.12200
C223        C  0.42393076  0.31902224  0.79538707    -0.10600
C224        C  0.45098059  0.30156140  0.82385017    -0.12200
C225        C  0.18696428  0.18404773  0.57804598    -0.10600
C226        C  0.21299572  0.16408609  0.59921008    -0.12200
C227        C  0.81211121  0.29628085  0.41908110    -0.10600
C228        C  0.78602213  0.31620086  0.39781809    -0.12200
C229        C  0.04804511  0.30165666  0.67360858    -0.10200
C230        C  0.07512307  0.31914760  0.70200036    -0.12200
C231        C  0.95084721  0.05139535  0.17389597    -0.10600
C232        C  0.92378240  0.06884679  0.20237304    -0.12200
C233        C  0.95104461  0.17874093  0.32378430    -0.10600
C234        C  0.92393834  0.16124172  0.29543316    -0.12200
C235        C  0.54813638  0.17866708  0.17346533    -0.10600
C236        C  0.57515405  0.16121446  0.20197283    -0.12200
C237        C  0.83758387  0.03954215  0.82214713    -0.10600
C238        C  0.87216329  0.02537616  0.85327508    -0.12200
C239        C  0.62716685  0.20516122  0.85316586    -0.10600
C240        C  0.66177656  0.19102947  0.82201748    -0.12200
C241        C  0.83725855  0.19108124  0.67490526    -0.10600
C242        C  0.87186626  0.20524032  0.64385498    -0.12200
C243        C  0.31142478  0.04584105  0.57804324    -0.10600
C244        C  0.28495549  0.06567448  0.59930111    -0.12200
C245        C  0.68786474  0.43443579  0.41919677    -0.10600
C246        C  0.71430440  0.41462453  0.39783497    -0.12200
C247        C  0.54789250  0.05154526  0.32393346    -0.10600
C248        C  0.57497506  0.06900439  0.29555348    -0.12200
C249        C  0.45129243  0.42867238  0.67340484    -0.10600
C250        C  0.42419552  0.41122559  0.70180416    -0.12200
C251        C  0.66179188  0.03943007  0.67508456    -0.10600
C252        C  0.62713586  0.02523583  0.64405588    -0.12200
C253        C  0.16170407  0.44083464  0.17508978    -0.10600
C254        C  0.12710109  0.45502378  0.14402205    -0.12200
C255        C  0.33751380  0.44080353  0.32213577    -0.10600
C256        C  0.37214857  0.45497689  0.35321884    -0.12200
C257        C  0.33733750  0.28922216  0.17511601    -0.10600
C258        C  0.37196579  0.27507399  0.14401072    -0.12200
C259        C  0.12726951  0.27514258  0.35334922    -0.10600
C260        C  0.16186157  0.28927825  0.32224357    -0.12200
C261        C  0.20604228  0.80474294  0.28458412     0.05800
C262        C  0.20621726  0.83436754  0.28412639    -0.10300
C263        C  0.24951088  0.84934875  0.24861912     0.03300
C264        C  0.29284547  0.83433760  0.21314318    -0.08900
C265        C  0.29310679  0.80471385  0.21274449     0.05800
C266        C  0.24959757  0.79010100  0.24867896    -0.08300
H267        H  0.17294404  0.84580682  0.31156195     0.11400
H268        H  0.32609658  0.84575391  0.18569506     0.08900
H269        H  0.24963312  0.76730191  0.24870173     0.08800
C270        C  0.20595632  0.92533783  0.21271823     0.05800
C271        C  0.24960097  0.93995699  0.24862052    -0.10300
C272        C  0.29320729  0.92532404  0.28451660     0.03300
C273        C  0.29295284  0.89570113  0.28409335    -0.08900
C274        C  0.24952064  0.88071006  0.24862304     0.05800
C275        C  0.20612889  0.89571247  0.21314563    -0.08300
H276        H  0.24963582  0.46275590  0.24862389     0.11400
H277        H  0.32628043  0.88427090  0.31152080     0.08900
H278        H  0.17278217  0.88428961  0.18571176     0.08800
O279        O  0.65288220  0.96213888  0.49416423    -0.78200
O280        O  0.40503856  0.51818180  0.58163978    -0.62900
O281        O  0.51946966  0.96571547  0.51257867    -1.09500
C282        C  0.51801388  0.53436990  0.36622471     1.08700
O283        O  0.34635449  0.51805323  0.50318435    -0.76100
O284        O  0.38038733  0.49762480  0.40109261    -0.63700
Ni285      Ni  0.59310691  0.95060873  0.55225943     1.34900
C286        C  0.40843850  0.97461779  0.38893709     0.87400
O287        O  0.44936838  0.96722698  0.61331669    -0.76700
O288        O  0.53631741  0.93759103  0.61144969    -0.86900
C289        C  0.35496744  0.52587798  0.55385744     0.87000
O290        O  0.61882675  0.98257055  0.59625103    -0.65100
O291        O  0.46286265  0.54260840  0.38587177    -0.84400
C292        C  0.59080451  0.00558725  0.60838423     0.87800
C293        C  0.48118198  0.94584104  0.63111007     1.09400
H294        H  0.50660488  0.53034093  0.49576900     0.41200
O295        O  0.47973889  0.51449620  0.48476018    -1.07100
O296        O  0.46627863  0.96847543  0.40590420    -0.63700
Ni297      Ni  0.53506614  0.98853552  0.44720657     1.26300
O298        O  0.53296873  0.51173846  0.59141504    -0.64000
O299        O  0.54985470  0.51299486  0.38403757    -0.76200
C300        C  0.64427562  0.95435136  0.44346574     0.87200
O301        O  0.59418688  0.96204395  0.41570712    -0.63400
Ni302      Ni  0.40609270  0.52959062  0.44507479     1.27400
Ni303      Ni  0.46415150  0.99168064  0.55013968     1.26100
H304        H  0.49259545  0.94987374  0.50156864     0.41700
C305        C  0.70600119  0.67556546  0.78434207     0.05800
C306        C  0.70630259  0.64594315  0.78389646    -0.10300
C307        C  0.74965872  0.63095594  0.74840138     0.03300
C308        C  0.79293465  0.64596129  0.71291858    -0.08900
C309        C  0.79306932  0.67558727  0.71250885     0.05800
C310        C  0.74948969  0.69020374  0.74843336    -0.08300
H311        H  0.67307574  0.63450891  0.81133629     0.11400
H312        H  0.82623718  0.63453993  0.68547911     0.08900
H313        H  0.74943027  0.71300284  0.74845693     0.08800
C314        C  0.79334779  0.55500214  0.78444767     0.05800
C315        C  0.74972988  0.54034773  0.74858135    -0.10300
C316        C  0.70610755  0.55494548  0.71264016     0.03300
C317        C  0.70632945  0.58456981  0.71298059    -0.08900
C318        C  0.74973951  0.59959460  0.74841480     0.05800
C319        C  0.79314108  0.58462590  0.78393806    -0.08300
H320        H  0.74971965  0.01754857  0.74865417     0.11400
H321        H  0.67298234  0.59597510  0.68552893     0.08900
H322        H  0.82645899  0.59607384  0.81135601     0.08800
C323        C  0.60978141  0.63833942  0.22793780     0.05800
C324        C  0.67851437  0.63838808  0.22828569    -0.10300
C325        C  0.71322738  0.61507256  0.24900890     0.03300
C326        C  0.67843430  0.59177927  0.26962946    -0.08900
C327        C  0.60969866  0.59187217  0.26975525     0.05800
C328        C  0.57524201  0.61511688  0.24879174    -0.08300
H329        H  0.70496363  0.65624779  0.21114229     0.11400
H330        H  0.70481711  0.57389716  0.28683241     0.08900
H331        H  0.52190839  0.61513211  0.24869670     0.08800
C332        C  0.88914754  0.59175339  0.22821828     0.05800
C333        C  0.82041327  0.59168940  0.22851099    -0.10300
C334        C  0.78569680  0.61504397  0.24905530     0.03300
C335        C  0.82048617  0.63838835  0.26956110    -0.08900
C336        C  0.88921923  0.63831268  0.26973817     0.05800
C337        C  0.92368124  0.61503018  0.24895036    -0.08300
H338        H  0.79396566  0.57378976  0.21144635     0.11400
H339        H  0.79410225  0.65630225  0.28663118     0.08900
H340        H  0.97701508  0.61502866  0.24889184     0.08800
O341        O  0.84654489  0.76831775  0.49383690    -0.78200
O342        O  0.09393874  0.71205522  0.58179503    -0.62900
O343        O  0.97985998  0.76462690  0.51257375    -1.09500
C344        C  0.98100942  0.69591989  0.36611604     1.08700
O345        O  0.15260259  0.71213056  0.50344530    -0.76100
O346        O  0.11882102  0.73253189  0.40125021    -0.63700
Ni347      Ni  0.90625325  0.77979676  0.55212891     1.34900
C348        C  0.09090652  0.75556393  0.38906009     0.87400
O349        O  0.04989378  0.76308063  0.61345698    -0.76700
O350        O  0.96302461  0.79276171  0.61149616    -0.86900
C351        C  0.14387614  0.70424459  0.55402784     0.87000
O352        O  0.88031241  0.74786063  0.59598931    -0.65100
O353        O  0.03610101  0.68762957  0.38586569    -0.84400
C354        C  0.90825279  0.72483715  0.60820150     0.87800
C355        C  0.01812940  0.78448472  0.63124077     1.09400
H356        H  0.99234889  0.69998419  0.49568545     0.41200
O357        O  0.01932006  0.71579805  0.48475271    -1.07100
O358        O  0.03311834  0.76178070  0.40597253    -0.63700
Ni359      Ni  0.96418345  0.74180767  0.44711167     1.26300
O360        O  0.96607827  0.71864069  0.59134954    -0.64000
O361        O  0.94929208  0.71734239  0.38387315    -0.76200
C362        C  0.85529289  0.77616300  0.44322933     0.87200
O363        O  0.90527868  0.76836715  0.41551577    -0.63400
Ni364      Ni  0.09290413  0.70061743  0.44518632     1.27400
Ni365      Ni  0.03501090  0.73861774  0.55021413     1.26100
H366        H  0.00682096  0.78044459  0.50164746     0.41700
C367        C  0.38931476  0.84191489  0.76947870     0.05800
C368        C  0.32058145  0.84189750  0.76922065    -0.10300
C369        C  0.28589497  0.86522674  0.74852413     0.03300
C370        C  0.32071384  0.88850210  0.72785643    -0.08900
C371        C  0.38944872  0.88837798  0.72764862     0.05800
C372        C  0.42387912  0.86511926  0.74857324    -0.08300
H373        H  0.29411815  0.82404937  0.78639743     0.11400
H374        H  0.29434671  0.90639264  0.71067248     0.08900
H375        H  0.47721285  0.86507986  0.74859753     0.08800
C376        C  0.10986756  0.84205769  0.72774004     0.05800
C377        C  0.17859969  0.84195160  0.72797239    -0.10300
C378        C  0.21342688  0.86528105  0.74849587     0.03300
C379        C  0.17875021  0.88865170  0.76901829    -0.08900
C380        C  0.11001527  0.88861792  0.76925880     0.05800
C381        C  0.07544281  0.86535647  0.74849731    -0.08300
H382        H  0.20495925  0.82402784  0.71091695     0.11400
H383        H  0.20522397  0.90654192  0.78609379     0.08900
H384        H  0.02210902  0.86538154  0.74850951     0.08800
O385        O  0.84648000  0.96209023  0.00292410    -0.78200
O386        O  0.09406052  0.51843520  0.91598312    -0.62900
O387        O  0.97988743  0.96581571  0.98460788    -1.09500
C388        C  0.98081200  0.53429292  0.13147145     1.08700
O389        O  0.15274122  0.51835455  0.99445313    -0.76100
O390        O  0.11873197  0.49770007  0.09634362    -0.63700
Ni391      Ni  0.90636203  0.95070849  0.94475180     1.34900
C392        C  0.09076549  0.97467317  0.10837600     0.87400
O393        O  0.05012686  0.96747628  0.88395253    -0.76700
O394        O  0.96324851  0.93782806  0.88546605    -0.86900
C395        C  0.14407001  0.52617004  0.94379629     0.87000
O396        O  0.88048656  0.98271489  0.90101166    -0.65100
O397        O  0.03594711  0.54258272  0.11193350    -0.84400
C398        C  0.90846090  0.00573929  0.88897609     0.87800
C399        C  0.01838612  0.94611635  0.86593114     1.09400
H400        H  0.99235704  0.53043846  0.00185380     0.41200
O401        O  0.01930577  0.51460282  0.01278253    -1.07100
O402        O  0.03295742  0.96851620  0.09135743    -0.63700
Ni403      Ni  0.96408881  0.98855600  0.05012288     1.26300
O404        O  0.96625530  0.51189894  0.90602039    -0.64000
O405        O  0.94907025  0.51293419  0.11344809    -0.76200
C406        C  0.85514020  0.95423772  0.05355730     0.87200
O407        O  0.90512686  0.96197380  0.08140439    -0.63400
Ni408      Ni  0.09283333  0.52971421  0.05263352     1.27400
Ni409      Ni  0.03510526  0.99185914  0.94727177     1.26100
H410        H  0.00683307  0.94997926  0.99553820     0.41700
C411        C  0.26456007  0.59042599  0.62841590     0.05800
C412        C  0.26584441  0.59054402  0.68732715    -0.10300
C413        C  0.24888030  0.61491704  0.71735186     0.03300
C414        C  0.23180658  0.63924450  0.68726256    -0.08900
C415        C  0.23304248  0.63930166  0.62835955     0.05800
C416        C  0.24878616  0.61484901  0.59858034    -0.08300
H417        H  0.28143249  0.57174324  0.70948822     0.11400
H418        H  0.21632732  0.65808298  0.70937400     0.08900
H419        H  0.24882613  0.61483331  0.55271607     0.08800
C420        C  0.26527341  0.63954268  0.86857548     0.05800
C421        C  0.26627738  0.63937919  0.80966935    -0.10300
C422        C  0.24914644  0.61499029  0.77974970     0.03300
C423        C  0.23231484  0.59067582  0.80994517    -0.08900
C424        C  0.23385034  0.59066789  0.86885279     0.05800
C425        C  0.24969116  0.61514536  0.89851422    -0.08300
H426        H  0.28169447  0.65817001  0.78742751     0.11400
H427        H  0.21671753  0.57182698  0.78792239     0.08900
H428        H  0.24988626  0.61520761  0.94437842     0.08800
O429        O  0.65263522  0.76815929  0.00342166    -0.78200
O430        O  0.40519934  0.71199498  0.91545464    -0.62900
O431        O  0.51930773  0.76451628  0.98478889    -1.09500
C432        C  0.51823657  0.69581817  0.13107995     1.08700
O433        O  0.34651647  0.71203316  0.99381247    -0.76100
O434        O  0.38039737  0.73246800  0.09599550    -0.63700
Ni435      Ni  0.59285936  0.77968198  0.94523015     1.34900
C436        C  0.40833835  0.75548174  0.10826905     0.87400
O437        O  0.44919592  0.76300145  0.88394312    -0.76700
O438        O  0.53601652  0.79267994  0.88595824    -0.86900
C439        C  0.35519714  0.70423157  0.94314575     0.87000
O440        O  0.61875069  0.74776009  0.90120915    -0.65100
O441        O  0.46313363  0.68754963  0.11132344    -0.84400
C442        C  0.59082094  0.72474208  0.88894935     0.87800
C443        C  0.48091915  0.78440380  0.86620344     1.09400
H444        H  0.50682823  0.69987264  0.00148140     0.41200
O445        O  0.47987465  0.71569336  0.01247395    -1.07100
O446        O  0.46614732  0.76167011  0.09140487    -0.63700
Ni447      Ni  0.53505191  0.74168241  0.05016456     1.26300
O448        O  0.53303717  0.71854201  0.90585434    -0.64000
O449        O  0.54998837  0.71721013  0.11332671    -0.76200
C450        C  0.64396161  0.77600005  0.05406319     0.87200
O451        O  0.59400359  0.76821980  0.08179906    -0.63400
Ni452      Ni  0.40630864  0.70053321  0.05202191     1.27400
Ni453      Ni  0.46413849  0.73852756  0.94710021     1.26100
H454        H  0.49234715  0.78033484  0.99578525     0.41700
C455        C  0.76596094  0.84098193  0.36867065     0.05800
C456        C  0.75032720  0.86543873  0.39847160    -0.10300
C457        C  0.73458968  0.88987342  0.36866811     0.03300
C458        C  0.73322410  0.88976473  0.30975877    -0.08900
C459        C  0.75009535  0.86538692  0.27970567     0.05800
C460        C  0.76713164  0.84104444  0.30976694    -0.08300
H461        H  0.75035033  0.86544904  0.44433613     0.11400
H462        H  0.71766506  0.90857758  0.28762415     0.08900
H463        H  0.78254821  0.82220241  0.28763512     0.08800
C464        C  0.73370925  0.84080383  0.12845084     0.05800
C465        C  0.74939049  0.86519946  0.09853814    -0.10300
C466        C  0.76527275  0.88966349  0.12823487     0.03300
C467        C  0.76674380  0.88964253  0.18714356    -0.08900
C468        C  0.74982566  0.86533083  0.21730795     0.05800
C469        C  0.73265389  0.84095764  0.18735740    -0.08300
H470        H  0.74924774  0.86514567  0.05267380     0.11400
H471        H  0.78237717  0.90847803  0.20919319     0.08900
H472        H  0.71718235  0.82216850  0.20957683     0.08800
C473        C  0.68720695  0.79609528  0.07822281    -0.10600
C474        C  0.71343041  0.81600681  0.09942204    -0.12200
C475        C  0.28556773  0.66433869  0.89759330    -0.10600
C476        C  0.31185403  0.68421209  0.91887318    -0.12200
C477        C  0.81173955  0.93422108  0.07765714    -0.10600
C478        C  0.78546070  0.91437759  0.09897025    -0.12200
C479        C  0.21376249  0.56595652  0.89817285    -0.10600
C480        C  0.18751222  0.54613771  0.91959886    -0.12200
C481        C  0.04835858  0.92900681  0.82352209    -0.10600
C482        C  0.07541479  0.91154374  0.79506791    -0.12200
C483        C  0.42393073  0.81902222  0.79538691    -0.10600
C484        C  0.45098047  0.80156136  0.82385008    -0.12200
C485        C  0.18696428  0.68404774  0.57804591    -0.10600
C486        C  0.21299553  0.66408608  0.59920992    -0.12200
C487        C  0.81211104  0.79628087  0.41908105    -0.10600
C488        C  0.78602213  0.81620094  0.39781805    -0.12200
C489        C  0.04804521  0.80165666  0.67360863    -0.10200
C490        C  0.07512303  0.81914763  0.70200034    -0.12200
C491        C  0.95084721  0.55139540  0.17389608    -0.10600
C492        C  0.92378235  0.56884683  0.20237303    -0.12200
C493        C  0.95104454  0.67874096  0.32378434    -0.10600
C494        C  0.92393859  0.66124168  0.29543310    -0.12200
C495        C  0.54813634  0.67866706  0.17346536    -0.10600
C496        C  0.57515410  0.66121447  0.20197280    -0.12200
C497        C  0.83758399  0.53954219  0.82214727    -0.10600
C498        C  0.87216342  0.52537618  0.85327519    -0.12200
C499        C  0.62716700  0.70516128  0.85316592    -0.10600
C500        C  0.66177660  0.69102953  0.82201740    -0.12200
C501        C  0.83725857  0.69108128  0.67490519    -0.10600
C502        C  0.87186627  0.70524037  0.64385500    -0.12200
C503        C  0.31142474  0.54584106  0.57804317    -0.10600
C504        C  0.28495559  0.56567446  0.59930114    -0.12200
C505        C  0.68786487  0.93443580  0.41919669    -0.10600
C506        C  0.71430447  0.91462452  0.39783491    -0.12200
C507        C  0.54789255  0.55154527  0.32393340    -0.10600
C508        C  0.57497489  0.56900446  0.29555345    -0.12200
C509        C  0.45129248  0.92867240  0.67340492    -0.10600
C510        C  0.42419584  0.91122557  0.70180414    -0.12200
C511        C  0.66179203  0.53942998  0.67508464    -0.10600
C512        C  0.62713596  0.52523578  0.64405592    -0.12200
C513        C  0.16170400  0.94083463  0.17508969    -0.10600
C514        C  0.12710128  0.95502387  0.14402205    -0.12200
C515        C  0.33751392  0.94080354  0.32213575    -0.10600
C516        C  0.37214856  0.95497693  0.35321882    -0.12200
C517        C  0.33733732  0.78922210  0.17511610    -0.10600
C518        C  0.37196590  0.77507407  0.14401076    -0.12200
C519        C  0.12726938  0.77514265  0.35334928    -0.10600
C520        C  0.16186147  0.78927828  0.32224359    -0.12200
loop_ 
_geom_bond_atom_site_label_1 
_geom_bond_atom_site_label_2 
_geom_bond_distance 
_geom_bond_site_symmetry_2 
_ccdc_geom_bond_type 
C1            C2   1.409       .  A
C1            C6   1.411       .  A
C1          C260   1.464       .  S
C2            C3   1.411       .  A
C2            H7   1.084       .  S
C3            C4   1.411       .  A
C3           C14   1.491       .  S
C4            C5   1.409       .  A
C4            H8   1.084       .  S
C5            C6   1.411       .  A
C5          C257   1.464       .  S
C6            H9   1.084       .  S
C10          C11   1.411       .  A
C10          C15   1.409       .  A
C10         C253   1.464       .  S
C11          C12   1.411       .  A
C11         H276   1.084       .  S
C12          C13   1.409       .  A
C12         C255   1.464       .  S
C13          C14   1.411       .  A
C13          H17   1.084       .  S
C14          C15   1.411       .  A
C15          H18   1.084       .  S
H16         C271   1.084       .  S
O19         Ni25   1.916       .  S
O19          C40   1.267       .  A
O20        Ni303   1.894   1_545  S
O20          C29   1.265       .  A
O21         Ni25   1.907       .  S
O21         Ni43   1.892       .  S
O21         Ni37   1.916       .  S
O21          H44   0.966       .  S
C22         C247   1.428       .  S
C22          O39   1.276       .  A
C22          O31   1.276       .  A
O23         Ni42   1.916       .  S
O23          C29   1.267       .  A
O24         Ni42   1.914   1_565  S
O24         C286   1.267       .  A
Ni25         O28   1.919       .  S
Ni25         O30   1.914       .  S
C26         C256   1.459       .  S
C26          O36   1.276       .  A
C26         O284   1.267       .  A
O27         Ni43   1.918       .  S
O27          C33   1.276       .  A
O28          C33   1.276       .  A
C29         C243   1.418       .  S
O30          C32   1.267       .  A
O31         Ni42   1.919       .  S
C32         C512   1.459       .  S
C32         O298   1.276       .  A
C33         C249   1.428       .  S
H34          O35   0.966       .  S
O35         Ni42   1.907       .  S
O35        Ni303   1.916   1_545  S
O35        Ni297   1.892   1_545  S
O36         Ni37   1.954       .  S
Ni37         O41   1.894       .  S
Ni37        O299   1.918       .  S
Ni37        O295   1.892       .  S
O38        Ni303   1.954   1_545  S
O38         C292   1.276       .  A
O39        Ni297   1.918   1_545  S
C40         C245   1.418       .  S
C40          O41   1.265       .  A
Ni43        O280   1.894       .  S
Ni43        O298   1.954       .  S
Ni43        O295   1.916       .  S
C45          C46   1.409       .  A
C45          C50   1.411       .  A
C45         C240   1.464       .  S
C46          C47   1.411       .  A
C46          H51   1.084       .  S
C47          C48   1.411       .  A
C47          C58   1.491       .  S
C48          C49   1.409       .  A
C48          H52   1.084       .  S
C49          C50   1.411       .  A
C49         C241   1.464       .  S
C50          H53   1.084       .  S
C54          C55   1.411       .  A
C54          C59   1.409       .  A
C54         C237   1.464       .  S
C55          C56   1.411       .  A
C55         H320   1.084       .  S
C56          C57   1.409       .  A
C56         C251   1.464       .  S
C57          C58   1.411       .  A
C57          H61   1.084       .  S
C58          C59   1.411       .  A
C59          H62   1.084       .  S
H60         C315   1.084       .  S
C63          C64   1.398       .  A
C63          C68   1.399       .  A
C63         C236   1.434       .  S
C64          C65   1.403       .  A
C64          H69   1.084       .  S
C65          C66   1.403       .  A
C65          C74   1.474       .  S
C66          C67   1.398       .  A
C66          H70   1.084       .  S
C67          C68   1.399       .  A
C67         C248   1.434       .  S
C68          H71   1.085       .  S
C72          C73   1.398       .  A
C72          C77   1.399       .  A
C72         C232   1.434       .  S
C73          C74   1.403       .  A
C73          H78   1.084       .  S
C74          C75   1.403       .  A
C75          C76   1.398       .  A
C75          H79   1.084       .  S
C76          C77   1.399       .  A
C76         C234   1.434       .  S
C77          H80   1.085       .  S
O81         Ni87   1.915       .  S
O81         C102   1.267       .  A
O82        Ni105   1.894       .  S
O82          C91   1.265       .  A
O83         Ni87   1.907       .  S
O83        Ni105   1.892   1_655  S
O83         Ni99   1.916       .  S
O83         H106   0.966   1_655  S
C84         C233   1.428       .  S
C84         O101   1.277       .  A
C84          O93   1.276   1_655  A
O85        Ni104   1.915       .  S
O85          C91   1.266       .  A
O86        Ni104   1.914       .  S
O86          C88   1.267       .  A
Ni87         O90   1.918       .  S
Ni87         O92   1.914       .  S
C88         C259   1.459       .  S
C88          O98   1.276       .  A
O89        Ni105   1.918       .  S
O89          C95   1.277       .  A
O90          C95   1.276   1_655  A
C91         C225   1.418       .  S
O92          C94   1.267       .  A
O93        Ni104   1.918       .  S
C94         C242   1.459       .  S
C94         O100   1.276       .  A
C95         C229   1.428       .  S
H96          O97   0.966   1_655  S
O97        Ni105   1.916       .  S
O97         Ni99   1.892   1_455  S
O97        Ni104   1.907       .  S
O98         Ni99   1.954   1_455  S
Ni99        O103   1.894       .  S
Ni99        O101   1.918       .  S
O100       Ni105   1.954   1_655  S
C102        C227   1.418       .  S
C102        O103   1.265       .  A
C107        C108   1.398       .  A
C107        C112   1.399       .  A
C107        C223   1.434       .  S
C108        C109   1.403       .  A
C108        H113   1.084       .  S
C109        C110   1.403       .  A
C109        C118   1.474       .  S
C110        C111   1.398       .  A
C110        H114   1.084       .  S
C111        C112   1.399       .  A
C111        C250   1.434       .  S
C112        H115   1.085       .  S
C116        C117   1.398       .  A
C116        C121   1.399       .  A
C116        C230   1.434       .  S
C117        C118   1.403       .  A
C117        H122   1.084       .  S
C118        C119   1.403       .  A
C119        C120   1.398       .  A
C119        H123   1.084       .  S
C120        C121   1.399       .  A
C120        C222   1.434       .  S
C121        H124   1.085       .  S
O125       Ni131   1.916   1_554  S
O125        C146   1.267       .  A
O126       Ni409   1.894   1_545  S
O126        C135   1.265       .  A
O127       Ni131   1.907       .  S
O127       Ni149   1.892   1_655  S
O127       Ni143   1.916   1_556  S
O127        H150   0.966   1_655  S
C128        C231   1.428       .  S
C128        O145   1.276       .  A
C128        O137   1.276   1_655  A
O129       Ni148   1.916   1_556  S
O129        C135   1.267       .  A
O130       Ni148   1.914   1_565  S
O130        C392   1.267       .  A
Ni131       O134   1.918       .  S
Ni131       O136   1.914       .  S
C132        C254   1.459       .  S
C132        O142   1.276       .  A
C132        O390   1.267       .  A
O133       Ni149   1.918       .  S
O133        C139   1.276       .  A
O134        C139   1.276   1_655  A
C135        C220   1.418       .  S
O136        C138   1.267       .  A
O137       Ni148   1.918       .  S
C138        C498   1.459       .  S
C138        O404   1.276       .  A
C139        C221   1.428       .  S
H140        O141   0.966   1_655  S
O141       Ni148   1.907       .  S
O141       Ni409   1.916   1_544  S
O141       Ni403   1.892   1_445  S
O142       Ni143   1.954   1_455  S
Ni143       O147   1.894       .  S
Ni143       O405   1.918       .  S
Ni143       O401   1.892   1_655  S
O144       Ni409   1.954   1_645  S
O144        C398   1.276       .  A
O145       Ni403   1.918   1_545  S
C146        C217   1.418       .  S
C146        O147   1.265       .  A
Ni149       O386   1.894       .  S
Ni149       O404   1.954   1_455  S
Ni149       O401   1.916   1_556  S
C151        C152   1.393       .  A
C151        C156   1.396       .  A
C151        C244   1.425       .  S
C152        C153   1.402       .  A
C152        H157   1.084       .  S
C153        C154   1.402       .  A
C153        C162   1.476       .  S
C154        C155   1.393       .  A
C154        H158   1.084       .  S
C155        C156   1.396       .  A
C155        C226   1.425       .  S
C156        H159   1.085       .  S
C160        C161   1.393       .  A
C160        C165   1.396       .  A
C160        C215   1.425       .  S
C161        C162   1.402       .  A
C161        H166   1.084       .  S
C162        C163   1.402       .  A
C163        C164   1.393       .  A
C163        H167   1.084       .  S
C164        C165   1.396       .  A
C164        C219   1.425       .  S
C165        H168   1.085       .  S
O169       Ni175   1.915   1_554  S
O169        C190   1.267       .  A
O170       Ni193   1.894       .  S
O170        C179   1.265       .  A
O171       Ni175   1.907       .  S
O171       Ni193   1.892       .  S
O171       Ni187   1.916   1_556  S
O171        H194   0.966       .  S
C172        C235   1.428       .  S
C172        O189   1.277       .  A
C172        O181   1.276       .  A
O173       Ni192   1.916   1_556  S
O173        C179   1.267       .  A
O174       Ni192   1.914       .  S
O174        C176   1.267       .  A
Ni175       O178   1.918       .  S
Ni175       O180   1.914       .  S
C176        C258   1.459       .  S
C176        O186   1.276       .  A
O177       Ni193   1.918       .  S
O177        C183   1.277       .  A
O178        C183   1.276       .  A
C179        C216   1.418       .  S
O180        C182   1.267       .  A
O181       Ni192   1.919       .  S
C182        C239   1.459       .  S
C182        O188   1.276       .  A
C183        C224   1.428       .  S
H184        O185   0.966       .  S
O185       Ni193   1.916   1_554  S
O185       Ni187   1.892       .  S
O185       Ni192   1.907       .  S
O186       Ni187   1.954       .  S
Ni187       O191   1.894       .  S
Ni187       O189   1.918       .  S
O188       Ni193   1.954       .  S
C190        C213   1.418       .  S
C190        O191   1.265       .  A
C195        C196   1.396       .  A
C195        C200   1.393       .  A
C195        C228   1.425       .  S
C196        C197   1.396       .  A
C196        H201   1.085       .  S
C197        C198   1.393       .  A
C197        C246   1.425       .  S
C198        C199   1.402       .  A
C198        H202   1.084       .  S
C199        C200   1.402       .  A
C199        C208   1.476       .  S
C200        H203   1.084       .  S
C204        C205   1.396       .  A
C204        C209   1.393       .  A
C204        C214   1.425       .  S
C205        C206   1.396       .  A
C205        H210   1.085       .  S
C206        C207   1.393       .  A
C206        C218   1.425       .  S
C207        C208   1.402       .  A
C207        H211   1.084       .  S
C208        C209   1.402       .  A
C209        H212   1.084       .  S
C213        C214   1.196       .  T
C215        C216   1.196       .  T
C217        C218   1.196       .  T
C219        C220   1.196       .  T
C221        C222   1.202       .  T
C223        C224   1.202       .  T
C225        C226   1.196       .  T
C227        C228   1.196       .  T
C229        C230   1.202       .  T
C231        C232   1.202       .  T
C233        C234   1.202       .  T
C235        C236   1.202       .  T
C237        C238   1.220       .  T
C238        C398   1.459       .  S
C239        C240   1.220       .  T
C241        C242   1.221       .  T
C243        C244   1.196       .  T
C245        C246   1.196       .  T
C247        C248   1.202       .  T
C249        C250   1.202       .  T
C251        C252   1.220       .  T
C252        C292   1.459       .  S
C253        C254   1.220       .  T
C255        C256   1.220       .  T
C257        C258   1.220       .  T
C259        C260   1.221       .  T
C261        C262   1.409       .  A
C261        C266   1.411       .  A
C261        C520   1.464       .  S
C262        C263   1.411       .  A
C262        H267   1.084       .  S
C263        C264   1.411       .  A
C263        C274   1.491       .  S
C264        C265   1.409       .  A
C264        H268   1.084       .  S
C265        C266   1.411       .  A
C265        C517   1.464       .  S
C266        H269   1.084       .  S
C270        C271   1.411       .  A
C270        C275   1.409       .  A
C270        C513   1.464       .  S
C271        C272   1.411       .  A
C272        C273   1.409       .  A
C272        C515   1.464       .  S
C273        C274   1.411       .  A
C273        H277   1.084       .  S
C274        C275   1.411       .  A
C275        H278   1.084       .  S
O279       Ni285   1.916       .  S
O279        C300   1.267       .  A
O280        C289   1.265       .  A
O281       Ni285   1.907       .  S
O281       Ni303   1.892       .  S
O281       Ni297   1.916       .  S
O281        H304   0.966       .  S
C282        C507   1.428       .  S
C282        O299   1.276       .  A
C282        O291   1.276       .  A
O283       Ni302   1.916       .  S
O283        C289   1.267       .  A
O284       Ni302   1.914       .  S
Ni285       O288   1.919       .  S
Ni285       O290   1.914       .  S
C286        C516   1.459       .  S
C286        O296   1.276       .  A
O287       Ni303   1.918       .  S
O287        C293   1.276       .  A
O288        C293   1.276       .  A
C289        C503   1.418       .  S
O290        C292   1.267   1_565  A
O291       Ni302   1.919       .  S
C293        C509   1.428       .  S
H294        O295   0.966       .  S
O295       Ni302   1.907       .  S
O296       Ni297   1.954       .  S
Ni297       O301   1.894       .  S
C300        C505   1.418       .  S
C300        O301   1.265       .  A
C305        C306   1.409       .  A
C305        C310   1.411       .  A
C305        C500   1.464       .  S
C306        C307   1.411       .  A
C306        H311   1.084       .  S
C307        C308   1.411       .  A
C307        C318   1.491       .  S
C308        C309   1.409       .  A
C308        H312   1.084       .  S
C309        C310   1.411       .  A
C309        C501   1.464       .  S
C310        H313   1.084       .  S
C314        C315   1.411       .  A
C314        C319   1.409       .  A
C314        C497   1.464       .  S
C315        C316   1.411       .  A
C316        C317   1.409       .  A
C316        C511   1.464       .  S
C317        C318   1.411       .  A
C317        H321   1.084       .  S
C318        C319   1.411       .  A
C319        H322   1.084       .  S
C323        C324   1.398       .  A
C323        C328   1.399       .  A
C323        C496   1.434       .  S
C324        C325   1.403       .  A
C324        H329   1.084       .  S
C325        C326   1.403       .  A
C325        C334   1.474       .  S
C326        C327   1.398       .  A
C326        H330   1.084       .  S
C327        C328   1.399       .  A
C327        C508   1.434       .  S
C328        H331   1.085       .  S
C332        C333   1.398       .  A
C332        C337   1.399       .  A
C332        C492   1.434       .  S
C333        C334   1.403       .  A
C333        H338   1.084       .  S
C334        C335   1.403       .  A
C335        C336   1.398       .  A
C335        H339   1.084       .  S
C336        C337   1.399       .  A
C336        C494   1.434       .  S
C337        H340   1.085       .  S
O341       Ni347   1.915       .  S
O341        C362   1.267       .  A
O342       Ni365   1.894       .  S
O342        C351   1.265       .  A
O343       Ni347   1.907       .  S
O343       Ni365   1.892   1_655  S
O343       Ni359   1.916       .  S
O343        H366   0.966   1_655  S
C344        C493   1.428       .  S
C344        O361   1.277       .  A
C344        O353   1.276   1_655  A
O345       Ni364   1.915       .  S
O345        C351   1.266       .  A
O346       Ni364   1.914       .  S
O346        C348   1.267       .  A
Ni347       O350   1.918       .  S
Ni347       O352   1.914       .  S
C348        C519   1.459       .  S
C348        O358   1.276       .  A
O349       Ni365   1.918       .  S
O349        C355   1.277       .  A
O350        C355   1.276   1_655  A
C351        C485   1.418       .  S
O352        C354   1.267       .  A
O353       Ni364   1.918       .  S
C354        C502   1.459       .  S
C354        O360   1.276       .  A
C355        C489   1.428       .  S
H356        O357   0.966   1_655  S
O357       Ni365   1.916       .  S
O357       Ni359   1.892   1_455  S
O357       Ni364   1.907       .  S
O358       Ni359   1.954   1_455  S
Ni359       O363   1.894       .  S
Ni359       O361   1.918       .  S
O360       Ni365   1.954   1_655  S
C362        C487   1.418       .  S
C362        O363   1.265       .  A
C367        C368   1.398       .  A
C367        C372   1.399       .  A
C367        C483   1.434       .  S
C368        C369   1.403       .  A
C368        H373   1.084       .  S
C369        C370   1.403       .  A
C369        C378   1.474       .  S
C370        C371   1.398       .  A
C370        H374   1.084       .  S
C371        C372   1.399       .  A
C371        C510   1.434       .  S
C372        H375   1.085       .  S
C376        C377   1.398       .  A
C376        C381   1.399       .  A
C376        C490   1.434       .  S
C377        C378   1.403       .  A
C377        H382   1.084       .  S
C378        C379   1.403       .  A
C379        C380   1.398       .  A
C379        H383   1.084       .  S
C380        C381   1.399       .  A
C380        C482   1.434       .  S
C381        H384   1.085       .  S
O385       Ni391   1.916   1_554  S
O385        C406   1.267       .  A
O386        C395   1.265       .  A
O387       Ni391   1.907       .  S
O387       Ni409   1.892   1_655  S
O387       Ni403   1.916   1_556  S
O387        H410   0.966   1_655  S
C388        C491   1.428       .  S
C388        O405   1.276       .  A
C388        O397   1.276   1_655  A
O389       Ni408   1.916   1_556  S
O389        C395   1.267       .  A
O390       Ni408   1.914       .  S
Ni391       O394   1.918       .  S
Ni391       O396   1.914       .  S
C392        C514   1.459       .  S
C392        O402   1.276       .  A
O393       Ni409   1.918       .  S
O393        C399   1.276       .  A
O394        C399   1.276   1_655  A
C395        C480   1.418       .  S
O396        C398   1.267   1_565  A
O397       Ni408   1.919       .  S
C399        C481   1.428       .  S
H400        O401   0.966   1_655  S
O401       Ni408   1.907       .  S
O402       Ni403   1.954   1_455  S
Ni403       O407   1.894       .  S
C406        C477   1.418       .  S
C406        O407   1.265       .  A
C411        C412   1.393       .  A
C411        C416   1.396       .  A
C411        C504   1.425       .  S
C412        C413   1.402       .  A
C412        H417   1.084       .  S
C413        C414   1.402       .  A
C413        C422   1.476       .  S
C414        C415   1.393       .  A
C414        H418   1.084       .  S
C415        C416   1.396       .  A
C415        C486   1.425       .  S
C416        H419   1.085       .  S
C420        C421   1.393       .  A
C420        C425   1.396       .  A
C420        C475   1.425       .  S
C421        C422   1.402       .  A
C421        H426   1.084       .  S
C422        C423   1.402       .  A
C423        C424   1.393       .  A
C423        H427   1.084       .  S
C424        C425   1.396       .  A
C424        C479   1.425       .  S
C425        H428   1.085       .  S
O429       Ni435   1.915   1_554  S
O429        C450   1.267       .  A
O430       Ni453   1.894       .  S
O430        C439   1.265       .  A
O431       Ni435   1.907       .  S
O431       Ni453   1.892       .  S
O431       Ni447   1.916   1_556  S
O431        H454   0.966       .  S
C432        C495   1.428       .  S
C432        O449   1.277       .  A
C432        O441   1.276       .  A
O433       Ni452   1.916   1_556  S
O433        C439   1.267       .  A
O434       Ni452   1.914       .  S
O434        C436   1.267       .  A
Ni435       O438   1.918       .  S
Ni435       O440   1.914       .  S
C436        C518   1.459       .  S
C436        O446   1.276       .  A
O437       Ni453   1.918       .  S
O437        C443   1.277       .  A
O438        C443   1.276       .  A
C439        C476   1.418       .  S
O440        C442   1.267       .  A
O441       Ni452   1.919       .  S
C442        C499   1.459       .  S
C442        O448   1.276       .  A
C443        C484   1.428       .  S
H444        O445   0.966       .  S
O445       Ni453   1.916   1_554  S
O445       Ni447   1.892       .  S
O445       Ni452   1.907       .  S
O446       Ni447   1.954       .  S
Ni447       O451   1.894       .  S
Ni447       O449   1.918       .  S
O448       Ni453   1.954       .  S
C450        C473   1.418       .  S
C450        O451   1.265       .  A
C455        C456   1.396       .  A
C455        C460   1.393       .  A
C455        C488   1.425       .  S
C456        C457   1.396       .  A
C456        H461   1.085       .  S
C457        C458   1.393       .  A
C457        C506   1.425       .  S
C458        C459   1.402       .  A
C458        H462   1.084       .  S
C459        C460   1.402       .  A
C459        C468   1.476       .  S
C460        H463   1.084       .  S
C464        C465   1.396       .  A
C464        C469   1.393       .  A
C464        C474   1.425       .  S
C465        C466   1.396       .  A
C465        H470   1.085       .  S
C466        C467   1.393       .  A
C466        C478   1.425       .  S
C467        C468   1.402       .  A
C467        H471   1.084       .  S
C468        C469   1.402       .  A
C469        H472   1.084       .  S
C473        C474   1.196       .  T
C475        C476   1.196       .  T
C477        C478   1.196       .  T
C479        C480   1.196       .  T
C481        C482   1.202       .  T
C483        C484   1.202       .  T
C485        C486   1.196       .  T
C487        C488   1.196       .  T
C489        C490   1.202       .  T
C491        C492   1.202       .  T
C493        C494   1.202       .  T
C495        C496   1.202       .  T
C497        C498   1.220       .  T
C499        C500   1.220       .  T
C501        C502   1.221       .  T
C503        C504   1.196       .  T
C505        C506   1.196       .  T
C507        C508   1.202       .  T
C509        C510   1.202       .  T
C511        C512   1.220       .  T
C513        C514   1.220       .  T
C515        C516   1.220       .  T
C517        C518   1.220       .  T
C519        C520   1.221       .  T
