geometry optimzed in LAMMPS
_audit_creation_date              2020-12-01 
_audit_creation_method            'lammps2cif' 
_symmetry_space_group_name_H-M    'P1' 
_symmetry_Int_Tables_number       1 
_symmetry_cell_setting            triclinic 
loop_ 
_symmetry_equiv_pos_as_xyz 
  x,y,z 
_cell_length_a                    64.24644697 
_cell_length_b                    64.3955958978782 
_cell_length_c                    64.90160047331057 
_cell_angle_alpha                 89.93095883977112 
_cell_angle_beta                  90.09480642651461 
_cell_angle_gamma                 89.93605237592742 
loop_ 
_atom_site_label 
_atom_site_type_symbol 
_atom_site_fract_x 
_atom_site_fract_y 
_atom_site_fract_z 
_atom_site_charge 
C1          C  0.37395297  0.62793506  0.62408457    -0.02500
N2          N  0.48686747  0.45095835  0.50916959    -0.06100
N3          N  0.48330160  0.43642040  0.52307559    -0.58200
N4          N  0.47102915  0.46495417  0.46236766    -0.05800
N5          N  0.45633968  0.45984042  0.44903788    -0.60400
N6          N  0.48612651  0.45112180  0.46203717    -0.05400
N7          N  0.48213903  0.43651354  0.44836497    -0.58200
N8          N  0.47200344  0.46506388  0.50954458    -0.05100
N9          N  0.45808845  0.46036925  0.52379220    -0.60700
C10         C  0.46540413  0.44253076  0.53221944     0.96100
C11         C  0.46359219  0.44217859  0.44027767     0.95800
N12         N  0.48421030  0.52909073  0.46212298    -0.06300
N13         N  0.47944789  0.54381900  0.44878632    -0.58800
N14         N  0.47064094  0.51473060  0.50924928    -0.04400
N15         N  0.45583193  0.51978918  0.52246497    -0.60100
N16         N  0.48526597  0.52904159  0.50912183    -0.06300
N17         N  0.48079972  0.54394234  0.52232472    -0.59100
N18         N  0.46977431  0.51459055  0.46215233    -0.04100
N19         N  0.45489456  0.51925767  0.44875655    -0.60100
Mn20       Mn  0.47031505  0.48976918  0.48584223     1.18400
C21         C  0.46122703  0.53751060  0.44041507     0.98100
C22         C  0.46249859  0.53795449  0.53066468     0.98800
N23         N  0.53510931  0.45207139  0.46089593    -0.06300
N24         N  0.53871813  0.43834312  0.44623369    -0.62700
N25         N  0.55071552  0.46616227  0.50778173    -0.05100
N26         N  0.56606310  0.46163957  0.52055554    -0.63300
N27         N  0.53641005  0.45156593  0.50822460    -0.05900
N28         N  0.54169669  0.43687386  0.52147905    -0.62900
N29         N  0.54946383  0.46661464  0.46074392    -0.04700
N30         N  0.56320821  0.46299797  0.44604333    -0.63600
Mn31       Mn  0.51111224  0.45096827  0.48513938     1.10700
C32         C  0.55622311  0.44538403  0.43698802     0.99400
C33         C  0.56016960  0.44343783  0.52913751     0.99400
N34         N  0.53467738  0.52964677  0.50841853    -0.05900
N35         N  0.53880401  0.54407382  0.52225815    -0.61200
N36         N  0.54836944  0.51544198  0.46116612    -0.05200
N37         N  0.56220521  0.51952516  0.44675763    -0.58000
N38         N  0.53352892  0.52952016  0.46111742    -0.06500
N39         N  0.53695595  0.54347698  0.44658420    -0.60800
N40         N  0.54937643  0.51538639  0.50844457    -0.05500
N41         N  0.56371038  0.51978580  0.52243416    -0.58000
Mn42       Mn  0.50946513  0.52975816  0.48520328     1.20200
Mn43       Mn  0.54996712  0.49095746  0.48459074     1.10100
Cl44       Cl  0.51018206  0.49036657  0.48525866    -0.86000
C45         C  0.55683532  0.53767510  0.53103233     0.96400
C46         C  0.55485044  0.53695315  0.43768593     0.96200
C47         C  0.65065110  0.35098726  0.61903583    -0.02500
C48         C  0.37431494  0.35058664  0.34877778    -0.02500
C49         C  0.64501747  0.62859414  0.34755524    -0.02500
C50         C  0.37731275  0.62752202  0.34154737    -0.02500
C51         C  0.64562908  0.35270886  0.34634619    -0.02500
C52         C  0.37417869  0.35180314  0.62303745    -0.02500
C53         C  0.64871057  0.62646059  0.62302192    -0.02500
N54         N  0.28725916  0.21432971  0.98056390    -0.36600
N55         N  0.26290348  0.23581110  0.01246837    -0.57200
N56         N  0.24112864  0.25801055  0.98000721    -0.36600
N57         N  0.26312999  0.23442220  0.94817189    -0.57200
C58         C  0.29344280  0.20379208  0.99756063     0.27000
C59         C  0.29394249  0.20357486  0.96389625     0.27000
C60         C  0.22910422  0.26150664  0.99679084     0.27000
C61         C  0.22881978  0.26032113  0.96320033     0.27000
C62         C  0.27833249  0.22758792  0.02409299     0.35600
C63         C  0.25417989  0.25123738  0.02370571     0.35600
C64         C  0.27866433  0.22624768  0.93670014     0.35600
C65         C  0.25377832  0.24907728  0.93641765     0.35600
C66         C  0.30446990  0.18623969  0.99153417    -0.21900
C67         C  0.30472068  0.18609259  0.97036562    -0.21900
C68         C  0.20886705  0.26567868  0.99060180    -0.21900
C69         C  0.20867004  0.26487742  0.96942240    -0.21900
C70         C  0.27917591  0.23763107  0.04297061    -0.22900
C71         C  0.26427478  0.25292780  0.04251249    -0.22900
C72         C  0.27905793  0.23554596  0.91746320    -0.22900
C73         C  0.26351506  0.25024611  0.91738656    -0.22900
C74         C  0.29085068  0.21043670  0.01826656    -0.18300
C75         C  0.29182255  0.20983364  0.94306595    -0.18300
C76         C  0.23581824  0.26032903  0.94246170    -0.18300
C77         C  0.23645579  0.26274174  0.01736368    -0.18300
H78         H  0.31216422  0.17493116  0.00124566     0.14600
H79         H  0.31242952  0.17464095  0.96085527     0.14600
H80         H  0.19567368  0.26921340  0.00034145     0.14600
H81         H  0.19527142  0.26770176  0.95968131     0.14600
H82         H  0.28956055  0.23457279  0.05573850     0.12900
H83         H  0.26136164  0.26395027  0.05472544     0.12900
H84         H  0.28958885  0.23225132  0.90488374     0.12900
H85         H  0.25989848  0.26055901  0.90471348     0.12900
H86         H  0.27993269  0.22866813  0.98039771     0.26200
H87         H  0.25721119  0.25599039  0.97995436     0.26200
N88         N  0.28894096  0.98972387  0.22174588    -0.36600
N89         N  0.26553037  0.95663979  0.24212850    -0.57200
N90         N  0.24235837  0.98890726  0.26417266    -0.36600
N91         N  0.26781201  0.02131118  0.24587709    -0.57200
C92         C  0.29986690  0.97247020  0.21673510     0.27000
C93         C  0.30169227  0.00625757  0.21906268     0.27000
C94         C  0.23725093  0.97142438  0.27465223     0.27000
C95         C  0.23805486  0.00531209  0.27655080     0.27000
C96         C  0.27322467  0.94627965  0.22568787     0.35600
C97         C  0.24889134  0.94569985  0.24883012     0.35600
C98         C  0.27859685  0.03380847  0.23299653     0.35600
C99         C  0.25351357  0.03343218  0.25530350     0.35600
C100        C  0.31995812  0.97806216  0.21129144    -0.21900
C101        C  0.32100343  0.99935498  0.21238602    -0.21900
C102        C  0.23009983  0.97678628  0.29407034    -0.21900
C103        C  0.23014142  0.99808571  0.29509979    -0.21900
C104        C  0.26132713  0.92874528  0.22186526    -0.22900
C105        C  0.24597376  0.92832790  0.23659553    -0.22900
C106        C  0.27151200  0.05407920  0.23469183    -0.22900
C107        C  0.25563817  0.05384286  0.24881117    -0.22900
C108        C  0.29139953  0.95219898  0.21484738    -0.18300
C109        C  0.29556210  0.02734682  0.22068649    -0.18300
C110        C  0.23968618  0.02652890  0.27080818    -0.18300
C111        C  0.23692242  0.95101571  0.26634028    -0.18300
H112        H  0.33244176  0.96789936  0.20642816     0.14600
H113        H  0.33449547  0.00849836  0.20841842     0.14600
H114        H  0.22483230  0.96645018  0.30613564     0.14600
H115        H  0.22472595  0.00697207  0.30812610     0.14600
H116        H  0.26327209  0.91752742  0.20962511     0.12900
H117        H  0.23386146  0.91674316  0.23789190     0.12900
H118        H  0.27743902  0.06774188  0.22696844     0.12900
H119        H  0.24705488  0.06730121  0.25402809     0.12900
H120        H  0.27310555  0.99029187  0.22497959     0.26200
H121        H  0.24687439  0.98966499  0.24881240     0.26200
N122        N  0.01552568  0.26948217  0.21093366    -0.36600
N123        N  0.04923387  0.25078644  0.23554628    -0.57200
N124        N  0.01772044  0.23136244  0.26083634    -0.36600
N125        N  0.98437541  0.25271688  0.23907899    -0.57200
C126        C  0.03237033  0.27961324  0.20357823     0.27000
C127        C  0.99856293  0.28073637  0.20559643     0.27000
C128        C  0.03525135  0.22772941  0.27185219     0.27000
C129        C  0.00140177  0.22852361  0.27366761     0.27000
C130        C  0.05981942  0.25688137  0.21863433     0.35600
C131        C  0.06111944  0.23621095  0.24496275     0.35600
C132        C  0.97173763  0.26020810  0.22417849     0.35600
C133        C  0.97282185  0.23936020  0.25032468     0.35600
C134        C  0.02603705  0.29751459  0.19341405    -0.21900
C135        C  0.00468273  0.29817869  0.19462101    -0.21900
C136        C  0.02996583  0.22296422  0.29204395    -0.21900
C137        C  0.00858222  0.22326151  0.29312347    -0.21900
C138        C  0.07863693  0.24642018  0.21745901    -0.22900
C139        C  0.07937497  0.23316664  0.23401494    -0.22900
C140        C  0.95193784  0.25195549  0.22620501    -0.22900
C141        C  0.95266306  0.23858019  0.24271078    -0.22900
C142        C  0.05314488  0.27241698  0.20471406    -0.18300
C143        C  0.97766925  0.27507094  0.20934107    -0.18300
C144        C  0.98025109  0.22837148  0.26768146    -0.18300
C145        C  0.05556084  0.22598215  0.26345416    -0.18300
H146        H  0.03576104  0.30884615  0.18575030     0.14600
H147        H  0.99478340  0.31008761  0.18804606     0.14600
H148        H  0.04043232  0.21890781  0.30450370     0.14600
H149        H  0.99932482  0.21953756  0.30654735     0.14600
H150        H  0.09045348  0.24790920  0.20568412     0.12900
H151        H  0.09183519  0.22235510  0.23727408     0.12900
H152        H  0.93845408  0.25511299  0.21667709     0.12900
H153        H  0.93981210  0.22939390  0.24842075     0.12900
H154        H  0.01555556  0.25504670  0.21804610     0.26200
H155        H  0.01682720  0.23350882  0.24500166     0.26200
N156        N  0.50952073  0.25467686  0.26152356    -0.36600
N157        N  0.54114946  0.22830662  0.24344284    -0.57200
N158        N  0.50855342  0.20799483  0.21889379    -0.36600
N159        N  0.47646261  0.23211015  0.23918674    -0.57200
C160        C  0.52618788  0.25997049  0.27330965     0.27000
C161        C  0.49223714  0.26189587  0.27109641     0.27000
C162        C  0.52496005  0.19511663  0.21598507     0.27000
C163        C  0.49113739  0.19730324  0.21379293     0.27000
C164        C  0.55383862  0.24201404  0.25304021     0.35600
C165        C  0.55320212  0.21729494  0.23034138     0.35600
C166        C  0.46535147  0.24823094  0.24672796     0.35600
C167        C  0.46494270  0.22368181  0.22383947     0.35600
C168        C  0.51930491  0.27086551  0.29042065    -0.21900
C169        C  0.49797376  0.27187365  0.28913326    -0.21900
C170        C  0.51790225  0.17604683  0.20899065    -0.21900
C171        C  0.49657606  0.17731562  0.20793621    -0.21900
C172        C  0.57416989  0.23919589  0.24644670    -0.22900
C173        C  0.57374585  0.22363164  0.23201280    -0.22900
C174        C  0.44658073  0.24992870  0.23631973    -0.22900
C175        C  0.44643844  0.23458229  0.22163029    -0.22900
C176        C  0.54743912  0.25640998  0.26829553    -0.18300
C177        C  0.47157138  0.26100514  0.26335297    -0.18300
C178        C  0.47074398  0.20574640  0.21255995    -0.18300
C179        C  0.54612796  0.20086757  0.21768843    -0.18300
H180        H  0.52853671  0.27770138  0.30257070     0.14600
H181        H  0.48787363  0.27948595  0.30011596     0.14600
H182        H  0.52704617  0.16257908  0.20488978     0.14600
H183        H  0.48628273  0.16499877  0.20297242     0.14600
H184        H  0.58795678  0.24732825  0.25157424     0.12900
H185        H  0.58712335  0.21745946  0.22395611     0.12900
H186        H  0.43438673  0.26124982  0.23884352     0.12900
H187        H  0.43411968  0.23195790  0.21056453     0.12900
H188        H  0.50990579  0.24782226  0.24727217     0.26200
H189        H  0.50939766  0.22359292  0.22237109     0.26200
N190        N  0.23734870  0.21679254  0.48524579    -0.36600
N191        N  0.26126414  0.23701123  0.51800438    -0.57200
N192        N  0.28193110  0.26233907  0.48686822    -0.36600
N193        N  0.25604210  0.24431092  0.45447939    -0.57200
C194        C  0.22814588  0.20858594  0.50221966     0.27000
C195        C  0.22481927  0.21290873  0.46883093     0.27000
C196        C  0.28637124  0.27281730  0.50442274     0.27000
C197        C  0.28498244  0.27561084  0.47095642     0.27000
C198        C  0.25386153  0.22048850  0.52859353     0.35600
C199        C  0.27665645  0.24540363  0.52956452     0.35600
C200        C  0.24508264  0.23186226  0.44167379     0.35600
C201        C  0.26946771  0.25515832  0.44255760     0.35600
C202        C  0.20970433  0.19905734  0.49642918    -0.21900
C203        C  0.20764208  0.20170570  0.47549994    -0.21900
C204        C  0.29179533  0.29311850  0.49945953    -0.21900
C205        C  0.29139246  0.29469950  0.47834469    -0.21900
C206        C  0.26453130  0.21844191  0.54706472    -0.22900
C207        C  0.27916126  0.23400523  0.54753756    -0.22900
C208        C  0.25123384  0.23534448  0.42145411    -0.22900
C209        C  0.26687344  0.24982910  0.42206672    -0.22900
C210        C  0.23639133  0.20850129  0.52260984    -0.18300
C211        C  0.22905386  0.21802284  0.44786757    -0.18300
C212        C  0.28317487  0.27064477  0.44985525    -0.18300
C213        C  0.28732835  0.26402132  0.52454623    -0.18300
H214        H  0.19894842  0.19064462  0.50614629     0.14600
H215        H  0.19497298  0.19564803  0.46634164     0.14600
H216        H  0.29594362  0.30551670  0.50992168     0.14600
H217        H  0.29517565  0.30839447  0.46942191     0.14600
H218        H  0.26206598  0.20699747  0.55902092     0.12900
H219        H  0.29023388  0.23663170  0.55982931     0.12900
H220        H  0.24512331  0.22832940  0.40758286     0.12900
H221        H  0.27507630  0.25599017  0.40886163     0.12900
H222        H  0.25186415  0.22374972  0.48476533     0.26200
H223        H  0.27858783  0.24659697  0.48562201     0.26200
N224        N  0.28981725  0.48896103  0.25139272    -0.36600
N225        N  0.26822365  0.45616499  0.22928666    -0.57200
N226        N  0.24484296  0.48846105  0.20677444    -0.36600
N227        N  0.26884654  0.52080263  0.22654318    -0.57200
C228        C  0.30079260  0.47180636  0.25693001     0.27000
C229        C  0.30202000  0.50576958  0.25495884     0.27000
C230        C  0.23985858  0.47122422  0.19601261     0.27000
C231        C  0.23974576  0.50499845  0.19491794     0.27000
C232        C  0.27557968  0.44514048  0.24550466     0.35600
C233        C  0.25248848  0.44491841  0.22115098     0.35600
C234        C  0.27884938  0.53318982  0.24012054     0.35600
C235        C  0.25446793  0.53280346  0.21696112     0.35600
C236        C  0.32033115  0.47778928  0.26374981    -0.21900
C237        C  0.32095237  0.49909841  0.26296283    -0.21900
C238        C  0.23155168  0.47685023  0.17705861    -0.21900
C239        C  0.23143493  0.49818841  0.17639351    -0.21900
C240        C  0.26431254  0.42690105  0.24769181    -0.22900
C241        C  0.24991965  0.42661153  0.23203398    -0.22900
C242        C  0.27107181  0.55328103  0.23872713    -0.22900
C243        C  0.25546316  0.55294315  0.22431260    -0.22900
C244        C  0.29294707  0.45112658  0.25759241    -0.18300
C245        C  0.29579975  0.52689324  0.25269828    -0.18300
C246        C  0.24124056  0.52604193  0.20088671    -0.18300
C247        C  0.24085104  0.45068526  0.20361798    -0.18300
H248        H  0.33279324  0.46787920  0.26919980     0.14600
H249        H  0.33396237  0.50834505  0.26808834     0.14600
H250        H  0.22579581  0.46663922  0.16510530     0.14600
H251        H  0.22569624  0.50762103  0.16378636     0.14600
H252        H  0.26602345  0.41508339  0.25942573     0.12900
H253        H  0.23856759  0.41452774  0.22923379     0.12900
H254        H  0.27616775  0.56696124  0.24693238     0.12900
H255        H  0.24615659  0.56614154  0.21961261     0.12900
H256        H  0.27427177  0.48928566  0.24698200     0.26200
H257        H  0.24997171  0.48885829  0.22194074     0.26200
N258        N  0.23619615  0.71629287  0.98550993    -0.36600
N259        N  0.25781939  0.73989345  0.01797807    -0.57200
N260        N  0.27992358  0.76225836  0.98655922    -0.36600
N261        N  0.25627573  0.74105635  0.95406753    -0.57200
C262        C  0.22369799  0.71519219  0.00225338     0.27000
C263        C  0.22371508  0.71457356  0.96877455     0.27000
C264        C  0.28533134  0.77300200  0.00370325     0.27000
C265        C  0.28346855  0.77490589  0.97029816     0.27000
C266        C  0.24814345  0.72546018  0.02952262     0.35600
C267        C  0.27253680  0.74844839  0.03009455     0.35600
C268        C  0.24537261  0.72836655  0.94129433     0.35600
C269        C  0.26832715  0.75334287  0.94202807     0.35600
C270        C  0.20314804  0.71331614  0.99621315    -0.21900
C271        C  0.20309089  0.71375616  0.97504289    -0.21900
C272        C  0.29226518  0.79261369  0.99828131    -0.21900
C273        C  0.29091649  0.79388894  0.97725935    -0.21900
C274        C  0.25657488  0.72484937  0.04917185    -0.22900
C275        C  0.27215488  0.73949534  0.04953192    -0.22900
C276        C  0.24954755  0.73388278  0.92106125    -0.22900
C277        C  0.26481469  0.74859856  0.92151418    -0.22900
C278        C  0.23059446  0.71442943  0.02281243    -0.18300
C279        C  0.23081588  0.71308707  0.94813625    -0.18300
C280        C  0.28149218  0.76954921  0.94922215    -0.18300
C281        C  0.28497977  0.76537821  0.02411334    -0.18300
H282        H  0.18962128  0.71218454  0.00606870     0.14600
H283        H  0.18938014  0.71336362  0.96533581     0.14600
H284        H  0.29767124  0.80480285  0.00842974     0.14600
H285        H  0.29509866  0.80730110  0.96809693     0.14600
H286        H  0.25168200  0.71525573  0.06198030     0.12900
H287        H  0.28176913  0.74340577  0.06267194     0.12900
H288        H  0.24152404  0.72946632  0.90713504     0.12900
H289        H  0.27165692  0.75539719  0.90792650     0.12900
H290        H  0.25244082  0.71659289  0.98553452     0.26200
H291        H  0.27540023  0.74677609  0.98588608     0.26200
N292        N  0.78091476  0.26459384  0.98528034    -0.36600
N293        N  0.75575251  0.24472845  0.95299555    -0.57200
N294        N  0.73341914  0.22242077  0.98506289    -0.36600
N295        N  0.75622053  0.24450395  0.01723992    -0.57200
C296        C  0.78703417  0.27539573  0.96842937     0.27000
C297        C  0.78774062  0.27498994  0.00212988     0.27000
C298        C  0.72154721  0.21902211  0.96813377     0.27000
C299        C  0.72116088  0.21947442  0.00176954     0.27000
C300        C  0.77139629  0.25263827  0.94155540     0.35600
C301        C  0.74682868  0.22967236  0.94149432     0.35600
C302        C  0.77189628  0.25210498  0.02897043     0.35600
C303        C  0.74629287  0.23007189  0.02878871     0.35600
C304        C  0.79804184  0.29280456  0.97457225    -0.21900
C305        C  0.79866962  0.29247164  0.99574419    -0.21900
C306        C  0.70143243  0.21415117  0.97412875    -0.21900
C307        C  0.70116003  0.21452890  0.99534591    -0.21900
C308        C  0.77227850  0.24282795  0.92260963    -0.22900
C309        C  0.75697581  0.22797984  0.92271084    -0.22900
C310        C  0.77159723  0.24271352  0.04821382    -0.22900
C311        C  0.75576534  0.22847433  0.04791740    -0.22900
C312        C  0.78436459  0.26916274  0.94767420    -0.18300
C313        C  0.78553644  0.26832122  0.02294651    -0.18300
C314        C  0.72814247  0.21923537  0.02253937    -0.18300
C315        C  0.72901051  0.21834829  0.94758222    -0.18300
H316        H  0.80539184  0.30428594  0.96480900     0.14600
H317        H  0.80680956  0.30367736  0.00514803     0.14600
H318        H  0.68840274  0.21038132  0.96422839     0.14600
H319        H  0.68784844  0.21111475  0.00496683     0.14600
H320        H  0.78308195  0.24579271  0.91017289     0.12900
H321        H  0.75387789  0.21719082  0.91033314     0.12900
H322        H  0.78164732  0.24558191  0.06125433     0.12900
H323        H  0.75179699  0.21820477  0.06049558     0.12900
H324        H  0.77355988  0.25028749  0.98521446     0.26200
H325        H  0.74943177  0.22476056  0.98521052     0.26200
N326        N  0.01203536  0.25576305  0.75604169    -0.36600
N327        N  0.04436970  0.23109135  0.73511166    -0.57200
N328        N  0.01175187  0.20754555  0.71509008    -0.36600
N329        N  0.97980001  0.23003192  0.73829576    -0.57200
C330        C  0.02949156  0.26199187  0.76596909     0.27000
C331        C  0.99554749  0.26109938  0.76792605     0.27000
C332        C  0.02884447  0.19540111  0.71286275     0.27000
C333        C  0.99487159  0.19506033  0.71388043     0.27000
C334        C  0.05502152  0.24827881  0.74069496     0.35600
C335        C  0.05481486  0.22249272  0.71913936     0.35600
C336        C  0.96766498  0.24471940  0.74702508     0.35600
C337        C  0.96763034  0.21978650  0.72473043     0.35600
C338        C  0.02395641  0.27161594  0.78431211    -0.21900
C339        C  0.00259794  0.27091845  0.78558590    -0.21900
C340        C  0.02267410  0.17482633  0.71112578    -0.21900
C341        C  0.00124358  0.17469175  0.71111400    -0.21900
C342        C  0.07238416  0.25060680  0.72827262    -0.22900
C343        C  0.07187689  0.23467094  0.71421400    -0.22900
C344        C  0.94761736  0.24360984  0.73918252    -0.22900
C345        C  0.94757560  0.22775881  0.72507419    -0.22900
C346        C  0.05001381  0.26064212  0.75798363    -0.18300
C347        C  0.97428530  0.25841080  0.76269095    -0.18300
C348        C  0.97404488  0.20215099  0.71355901    -0.18300
C349        C  0.04945593  0.20305751  0.71030548    -0.18300
H350        H  0.03407238  0.27887554  0.79550376     0.14600
H351        H  0.99330739  0.27721937  0.79799585     0.14600
H352        H  0.03254252  0.16130426  0.70947861     0.14600
H353        H  0.99162529  0.16105918  0.70933330     0.14600
H354        H  0.08408489  0.26262577  0.72891144     0.12900
H355        H  0.08283214  0.23252644  0.70176668     0.12900
H356        H  0.93435536  0.25311592  0.74326416     0.12900
H357        H  0.93416745  0.22245633  0.71646455     0.12900
H358        H  0.01145045  0.24937316  0.74136225     0.26200
H359        H  0.01146772  0.22372449  0.71555190     0.26200
N360        N  0.73297166  0.49090377  0.25439925    -0.36600
N361        N  0.75573343  0.52360171  0.23337185    -0.57200
N362        N  0.77549781  0.49190872  0.20782974    -0.36600
N363        N  0.75542147  0.45905992  0.23129007    -0.57200
C364        C  0.72945074  0.50726488  0.26700408     0.27000
C365        C  0.72836422  0.47350935  0.26515637     0.27000
C366        C  0.78690177  0.50905975  0.20367988     0.27000
C367        C  0.78749377  0.47521271  0.20328024     0.27000
C368        C  0.74199909  0.53535265  0.24393090     0.35600
C369        C  0.76375166  0.53590642  0.21852399     0.35600
C370        C  0.74010476  0.44739681  0.23963208     0.35600
C371        C  0.76349896  0.44786947  0.21559476     0.35600
C372        C  0.72260452  0.50015670  0.28600013    -0.21900
C373        C  0.72188367  0.47884747  0.28482074    -0.21900
C374        C  0.80636283  0.50327510  0.19651939    -0.21900
C375        C  0.80683270  0.48192981  0.19648502    -0.21900
C376        C  0.74140643  0.55530031  0.23588022    -0.22900
C377        C  0.75520513  0.55563929  0.21970560    -0.22900
C378        C  0.73846773  0.42867264  0.22929490    -0.22900
C379        C  0.75320509  0.42902369  0.21394690    -0.22900
C380        C  0.73082868  0.52845203  0.26134676    -0.18300
C381        C  0.72846878  0.45308338  0.25718988    -0.18300
C382        C  0.78078967  0.45420422  0.20363841    -0.18300
C383        C  0.77976005  0.52978198  0.20498689    -0.18300
H384        H  0.71832732  0.50938988  0.29926266     0.14600
H385        H  0.71696308  0.46846437  0.29699826     0.14600
H386        H  0.81892446  0.51340936  0.19181350     0.14600
H387        H  0.81989209  0.47245546  0.19175077     0.14600
H388        H  0.73207903  0.56825308  0.24113610     0.12900
H389        H  0.75871736  0.56892616  0.21009918     0.12900
H390        H  0.72774586  0.41611955  0.23245220     0.12900
H391        H  0.75593490  0.41680894  0.20284248     0.12900
H392        H  0.73684537  0.49156413  0.23887709     0.26200
H393        H  0.75988678  0.49169685  0.21205105     0.26200
N394        N  0.28201381  0.48810523  0.71006018    -0.36600
N395        N  0.26353150  0.52030970  0.73578941    -0.57200
N396        N  0.23967059  0.48841800  0.75747661    -0.36600
N397        N  0.25590556  0.45668256  0.72966697    -0.57200
C398        C  0.28851211  0.50551127  0.70027216     0.27000
C399        C  0.28466629  0.47196381  0.69695789     0.27000
C400        C  0.23082240  0.50590155  0.76505413     0.27000
C401        C  0.22687633  0.47237023  0.76201765     0.27000
C402        C  0.27924263  0.53130030  0.72728289     0.35600
C403        C  0.25676132  0.53144921  0.75209388     0.35600
C404        C  0.26793447  0.44410110  0.71798152     0.35600
C405        C  0.24558420  0.44426703  0.74302732     0.35600
C406        C  0.29525432  0.50036173  0.68064460    -0.21900
C407        C  0.29317404  0.47923665  0.67867761    -0.21900
C408        C  0.21218249  0.50090030  0.77455634    -0.21900
C409        C  0.20983071  0.47978184  0.77290576    -0.21900
C410        C  0.28245976  0.54947666  0.73826591    -0.22900
C411        C  0.26810417  0.54963508  0.75389262    -0.22900
C412        C  0.26473916  0.42354908  0.72356485    -0.22900
C413        C  0.25062266  0.42365939  0.73938733    -0.22900
C414        C  0.28986680  0.52565587  0.70905704    -0.18300
C415        C  0.28107291  0.45076542  0.70172989    -0.18300
C416        C  0.23087605  0.45113663  0.75777525    -0.18300
C417        C  0.23962528  0.52606462  0.76460705    -0.18300
H418        H  0.30139565  0.51067826  0.66897630     0.14600
H419        H  0.29764730  0.47045652  0.66522894     0.14600
H420        H  0.20146260  0.51130338  0.78220999     0.14600
H421        H  0.19699523  0.47105951  0.77925732     0.14600
H422        H  0.29391455  0.56142263  0.73534968     0.12900
H423        H  0.26625804  0.56172039  0.76532181     0.12900
H424        H  0.27157742  0.40980746  0.71678334     0.12900
H425        H  0.24458787  0.41004049  0.74710258     0.12900
H426        H  0.27747432  0.48706954  0.72534460     0.26200
H427        H  0.25422965  0.48732487  0.75072480     0.26200
C428        C  0.87029168  0.62592974  0.84978388    -0.02500
N429        N  0.98292854  0.52326067  0.95926995    -0.06100
N430        N  0.97737046  0.53736792  0.94552424    -0.58200
N431        N  0.97208470  0.50933013  0.00773720    -0.05800
N432        N  0.95909704  0.51331734  0.02302275    -0.60400
N433        N  0.98622890  0.52402963  0.00634952    -0.05400
N434        N  0.98311988  0.53830293  0.02054425    -0.58200
N435        N  0.96878187  0.50852216  0.96046864    -0.05100
N436        N  0.95330507  0.51237150  0.94756114    -0.60700
C437        C  0.95906762  0.53020140  0.93812735     0.96100
C438        C  0.96627012  0.53140636  0.03094276     0.95800
N439        N  0.98782155  0.44613219  0.00808683    -0.06300
N440        N  0.98425863  0.43146494  0.02188032    -0.58800
N441        N  0.97027625  0.45896092  0.96152008    -0.04400
N442        N  0.95535293  0.45378499  0.94845736    -0.60100
N443        N  0.98532100  0.44506950  0.96106628    -0.06300
N444        N  0.98099060  0.43027335  0.94768769    -0.59100
N445        N  0.97306242  0.46029707  0.00872134    -0.04100
N446        N  0.95929964  0.45564265  0.02310181    -0.60100
Mn447      Mn  0.97047928  0.48428984  0.98460260     1.18400
C448        C  0.96669040  0.43784081  0.03142423     0.98100
C449        C  0.96231522  0.43592075  0.93982794     0.98800
N450        N  0.03530308  0.52575992  0.00318835    -0.06300
N451        N  0.04006676  0.54042228  0.01662640    -0.62700
N452        N  0.04694994  0.51045320  0.95538278    -0.05100
N453        N  0.06037977  0.51507892  0.94065928    -0.63300
N454        N  0.03215940  0.52459358  0.95621699    -0.05900
N455        N  0.03530646  0.53913642  0.94223232    -0.62900
N456        N  0.05000424  0.51154397  0.00268159    -0.04700
N457        N  0.06493913  0.51610158  0.01591361    -0.63600
Mn458      Mn  0.00910341  0.52488548  0.98122826     1.10700
C459        C  0.05852693  0.53410156  0.02457290     0.99400
C460        C  0.05281489  0.53292759  0.93246758     0.99400
N461        N  0.03453390  0.44613637  0.95839297    -0.05900
N462        N  0.03880400  0.43103715  0.94529264    -0.61200
N463        N  0.05117174  0.46270126  0.00403471    -0.05200
N464        N  0.06610101  0.45966440  0.01771968    -0.58000
N465        N  0.03697168  0.44806710  0.00548031    -0.06500
N466        N  0.04189778  0.43483385  0.02022807    -0.60800
N467        N  0.04859406  0.46092649  0.95707615    -0.05500
N468        N  0.06274418  0.45610436  0.94313894    -0.58000
Mn469      Mn  0.01118612  0.44589381  0.98326043     1.20200
Mn470      Mn  0.04967578  0.48642272  0.97966816     1.10100
Cl471      Cl  0.01008568  0.48536897  0.98206987    -0.86000
C472        C  0.05636864  0.43750630  0.93576604     0.96400
C473        C  0.06003788  0.44230059  0.02780044     0.96200
C474        C  0.87141754  0.35315131  0.12309444    -0.02500
C475        C  0.14831510  0.34809415  0.84379113    -0.02500
C476        C  0.14856823  0.62349784  0.84711628    -0.02500
C477        C  0.87340901  0.34763423  0.84433006    -0.02500
C478        C  0.87445493  0.62189242  0.12011074    -0.02500
N479        N  0.74164862  0.48987421  0.70895315    -0.36600
N480        N  0.76268761  0.45600870  0.73110942    -0.57200
N481        N  0.78603838  0.48670033  0.75466620    -0.36600
N482        N  0.76284186  0.52040733  0.73458871    -0.57200
C483        C  0.73056981  0.47345844  0.70192300     0.27000
C484        C  0.73150450  0.50738070  0.70312725     0.27000
C485        C  0.79120926  0.46901710  0.76479406     0.27000
C486        C  0.79067422  0.50286643  0.76720595     0.18600
C487        C  0.75278011  0.44482310  0.71643162     0.35600
C488        C  0.77691916  0.44322020  0.73990390     0.35600
C489        C  0.75390356  0.53353085  0.72090075     0.35600
C490        C  0.77654871  0.53180077  0.74560359     0.35600
C491        C  0.71330917  0.48074687  0.69117739    -0.21900
C492        C  0.71381622  0.50203574  0.69210030    -0.21900
C493        C  0.79923450  0.47406304  0.78400694    -0.21900
C494        C  0.79910977  0.49534735  0.78543407    -0.21900
C495        C  0.76048761  0.42468037  0.71628466    -0.22900
C496        C  0.77600681  0.42381089  0.73076518    -0.22900
C497        C  0.76179084  0.55338869  0.72341116    -0.22900
C498        C  0.77596801  0.55234360  0.73916401    -0.22900
C499        C  0.73625319  0.45218320  0.70380045    -0.18300
C500        C  0.73812353  0.52808935  0.70668657    -0.18300
C501        C  0.78877292  0.52421149  0.76212197    -0.18300
C502        C  0.78988490  0.44850297  0.75682723    -0.18300
H503        H  0.70162630  0.47183987  0.68309332     0.14600
H504        H  0.70248914  0.51238081  0.68519536     0.14600
H505        H  0.80475518  0.46352529  0.79581546     0.14600
H506        H  0.80474761  0.50418192  0.79845156     0.14600
H507        H  0.75558789  0.41178962  0.70680360     0.12900
H508        H  0.78536255  0.41026949  0.73420351     0.12900
H509        H  0.75772190  0.56725405  0.71486726     0.12900
H510        H  0.78473844  0.56532544  0.74518353     0.12900
H511        H  0.75589033  0.48918938  0.71635251     0.26200
H512        H  0.78093575  0.48773753  0.73954388     0.26200
C513        C  0.14711122  0.62300219  0.11964827    -0.02500
C514        C  0.15356639  0.35334939  0.11678705    -0.02500
N515        N  0.28632441  0.98248118  0.75386569    -0.36600
N516        N  0.26192659  0.01472457  0.73384768    -0.57200
N517        N  0.23750420  0.98196623  0.71414204    -0.36600
N518        N  0.25922257  0.94997825  0.73658755    -0.57200
C519        C  0.29223706  0.99968510  0.76433398     0.27000
C520        C  0.29050372  0.96591160  0.76602340     0.27000
C521        C  0.22568386  0.99917800  0.71162615     0.27000
C522        C  0.22463633  0.96538501  0.71279164     0.27000
C523        C  0.27893855  0.02567464  0.73959298     0.35600
C524        C  0.25279335  0.02538376  0.71827834     0.35600
C525        C  0.27509624  0.93850861  0.74405472     0.35600
C526        C  0.24956025  0.93814687  0.72230100     0.35600
C527        C  0.30000970  0.99392295  0.78347954    -0.21900
C528        C  0.29908246  0.97259389  0.78446367    -0.21900
C529        C  0.20498254  0.99347509  0.70930876    -0.21900
C530        C  0.20434851  0.97211263  0.70992007    -0.21900
C531        C  0.28069617  0.04338305  0.72759335    -0.22900
C532        C  0.26423499  0.04312026  0.71396737    -0.22900
C533        C  0.27549561  0.91919700  0.73471607    -0.22900
C534        C  0.25950918  0.91909191  0.72059445    -0.22900
C535        C  0.29205961  0.02020019  0.75631696    -0.18300
C536        C  0.28822451  0.94491586  0.76018189    -0.18300
C537        C  0.23130183  0.94445165  0.71184073    -0.18300
C538        C  0.23364854  0.01953017  0.70900509    -0.18300
H539        H  0.30593519  0.00399064  0.79546074     0.14600
H540        H  0.30428967  0.96307801  0.79723431     0.14600
H541        H  0.19178776  0.00363860  0.70681473     0.14600
H542        H  0.19062504  0.96257482  0.70797375     0.14600
H543        H  0.29268360  0.05514580  0.72841477     0.12900
H544        H  0.26121895  0.05463909  0.70219352     0.12900
H545        H  0.28632236  0.90663409  0.73761716     0.12900
H546        H  0.25582845  0.90642404  0.71030593     0.12900
H547        H  0.28109649  0.98192463  0.73868799     0.26200
H548        H  0.25371190  0.98149940  0.71468384     0.26200
N549        N  0.51291378  0.72352184  0.25532026    -0.36600
N550        N  0.54581200  0.74994385  0.23764242    -0.57200
N551        N  0.51422675  0.77206749  0.21413407    -0.36600
N552        N  0.48128507  0.74568276  0.23205889    -0.57200
C553        C  0.52915612  0.71881614  0.26787457     0.27000
C554        C  0.49537557  0.71622750  0.26446199     0.27000
C555        C  0.53154972  0.78040171  0.20549664     0.27000
C556        C  0.49762358  0.77890592  0.20316793     0.27000
C557        C  0.55789067  0.73770396  0.24961303     0.35600
C558        C  0.55878555  0.76217632  0.22662358     0.35600
C559        C  0.46876267  0.73112809  0.24059007     0.35600
C560        C  0.46939988  0.75681205  0.21885035     0.35600
C561        C  0.52184027  0.70822546  0.28501824    -0.21900
C562        C  0.50063492  0.70684342  0.28300292    -0.21900
C563        C  0.52574489  0.79294340  0.18905634    -0.21900
C564        C  0.50446197  0.79206207  0.18764297    -0.21900
C565        C  0.57870744  0.74236634  0.24638832    -0.22900
C566        C  0.57926794  0.75787992  0.23188356    -0.22900
C567        C  0.44889273  0.73281734  0.23244091    -0.22900
C568        C  0.44912406  0.74939727  0.21925584    -0.22900
C569        C  0.55052106  0.72292702  0.26401218    -0.18300
C570        C  0.47475445  0.71712542  0.25642274    -0.18300
C571        C  0.47643308  0.77333559  0.20613399    -0.18300
C572        C  0.55255953  0.77677227  0.21144923    -0.18300
H573        H  0.53073199  0.70214599  0.29783313     0.14600
H574        H  0.49027490  0.69972879  0.29407666     0.14600
H575        H  0.53579179  0.80156866  0.17878120     0.14600
H576        H  0.49514708  0.79980185  0.17603222     0.14600
H577        H  0.59212366  0.73548843  0.25385859     0.12900
H578        H  0.59319847  0.76509483  0.22586269     0.12900
H579        H  0.43542067  0.72331890  0.23563961     0.12900
H580        H  0.43574181  0.75499123  0.21080149     0.12900
H581        H  0.51395225  0.73022580  0.24082256     0.26200
H582        H  0.51359761  0.76245114  0.22685903     0.26200
N583        N  0.51522001  0.26076804  0.70989644    -0.36600
N584        N  0.54652945  0.24166977  0.73615542    -0.57200
N585        N  0.51355192  0.21910132  0.75770725    -0.36600
N586        N  0.48207616  0.24048486  0.73366313    -0.57200
C587        C  0.53248385  0.27113454  0.70384778     0.27000
C588        C  0.49852973  0.27213290  0.70391024     0.27000
C589        C  0.52981313  0.21551688  0.77049590     0.27000
C590        C  0.49604616  0.21326247  0.76770076     0.27000
C591        C  0.55922542  0.24948222  0.72147351     0.35600
C592        C  0.55830461  0.22885776  0.74785933     0.35600
C593        C  0.47060578  0.24961388  0.71869596     0.35600
C594        C  0.46991881  0.22566616  0.74222944     0.35600
C595        C  0.52671778  0.28917156  0.69365682    -0.21900
C596        C  0.50535715  0.28977292  0.69361447    -0.21900
C597        C  0.52247141  0.20722135  0.78886686    -0.21900
C598        C  0.50119666  0.20591777  0.78712956    -0.21900
C599        C  0.57920531  0.24176341  0.72397984    -0.22900
C600        C  0.57871149  0.22898241  0.74085730    -0.22900
C601        C  0.45089135  0.24089887  0.71812092    -0.22900
C602        C  0.45062239  0.22544756  0.73265734    -0.22900
C603        C  0.55330891  0.26445408  0.70661822    -0.18300
C604        C  0.47735557  0.26637602  0.70626874    -0.18300
C605        C  0.47572176  0.21308393  0.75922306    -0.18300
C606        C  0.55110840  0.21770256  0.76526739    -0.18300
H607        H  0.53683458  0.30073451  0.68688356     0.14600
H608        H  0.49603123  0.30177397  0.68645978     0.14600
H609        H  0.53139612  0.20213352  0.80207416     0.14600
H610        H  0.49073940  0.19992326  0.79875831     0.14600
H611        H  0.59282704  0.24514237  0.71479146     0.12900
H612        H  0.59198622  0.22082174  0.74718351     0.12900
H613        H  0.43799975  0.24497592  0.70818548     0.12900
H614        H  0.43756342  0.21535609  0.73579126     0.12900
H615        H  0.51486639  0.24621916  0.71670412     0.26200
H616        H  0.51445311  0.22370462  0.74243974     0.26200
C617        C  0.64952194  0.12645774  0.84718704    -0.02500
N618        N  0.53585644  0.95236029  0.95892817    -0.06100
N619        N  0.54000124  0.93968566  0.94344180    -0.58200
N620        N  0.54912956  0.96463820  0.00754758    -0.05800
N621        N  0.56321125  0.96009535  0.02168250    -0.60400
N622        N  0.53523962  0.94967276  0.00619404    -0.05400
N623        N  0.53978872  0.93453466  0.01925526    -0.58200
N624        N  0.55018577  0.96688965  0.96026843    -0.05100
N625        N  0.56434481  0.96437384  0.94579337    -0.60700
C626        C  0.55778575  0.94745490  0.93531269     0.96100
C627        C  0.55716615  0.94136007  0.02894836     0.95800
N628        N  0.53445294  0.02872485  0.00916040    -0.06300
N629        N  0.53857236  0.04324948  0.02293296    -0.58800
N630        N  0.55021844  0.01567994  0.96223693    -0.04400
N631        N  0.56476746  0.02000611  0.94855224    -0.60100
N632        N  0.53552840  0.02992173  0.96188575    -0.06300
N633        N  0.53978268  0.04421617  0.94786002    -0.59100
N634        N  0.54891082  0.01422959  0.00951303    -0.04100
N635        N  0.56310074  0.01860684  0.02364591    -0.60100
Mn636      Mn  0.55008904  0.99029768  0.98504197     1.18400
C637        C  0.55638073  0.03669367  0.03201415     0.98100
C638        C  0.55804462  0.03776958  0.93958481     0.98800
N639        N  0.48553603  0.94966349  0.00530880    -0.06300
N640        N  0.48068258  0.93487224  0.01862614    -0.62700
N641        N  0.47184612  0.96590648  0.95847507    -0.05100
N642        N  0.45719054  0.96167621  0.94483795    -0.63300
N643        N  0.48653795  0.95164922  0.95798067    -0.05900
N644        N  0.48226818  0.93758890  0.94377551    -0.62900
N645        N  0.47105239  0.96414441  0.00523425    -0.04700
N646        N  0.45606248  0.95947469  0.01825183    -0.63600
Mn647      Mn  0.51083799  0.95023114  0.98209903     1.10700
C648        C  0.46230856  0.94132758  0.02665080     0.99400
C649        C  0.46400501  0.94413611  0.93560324     0.99400
N650        N  0.48610672  0.02949181  0.96095815    -0.05900
N651        N  0.48178864  0.04453407  0.94779732    -0.61200
N652        N  0.47083823  0.01312286  0.00749990    -0.05200
N653        N  0.45620960  0.01678394  0.02135422    -0.58000
N654        N  0.48514034  0.02773254  0.00807998    -0.06500
N655        N  0.48046528  0.04163617  0.02223988    -0.60800
N656        N  0.47160209  0.01509738  0.96032265    -0.05500
N657        N  0.45709450  0.02011377  0.94676965    -0.58000
Mn658      Mn  0.51027752  0.02943179  0.98499360     1.20200
Mn659      Mn  0.47090582  0.98958219  0.98286295     1.10100
Cl660      Cl  0.51053564  0.98986975  0.98379731    -0.86000
C661        C  0.46372428  0.03843591  0.93895949     0.96400
C662        C  0.46251309  0.03456221  0.03055362     0.96200
C663        C  0.65341907  0.85710423  0.12066784    -0.02500
C664        C  0.37354629  0.84855905  0.85005779    -0.02500
C665        C  0.37576824  0.12405504  0.84083126    -0.02500
C666        C  0.64805626  0.85474161  0.84748187    -0.02500
C667        C  0.37171253  0.85416004  0.12092497    -0.02500
N668        N  0.51170785  0.70925218  0.72162720    -0.36600
N669        N  0.47976758  0.73220861  0.74384065    -0.57200
N670        N  0.51248597  0.75382912  0.76679552    -0.36600
N671        N  0.54432011  0.73352722  0.74185860    -0.57200
C672        C  0.49443175  0.70388192  0.71092366     0.27000
C673        C  0.52829730  0.70483877  0.70958852     0.27000
C674        C  0.49543497  0.76506559  0.77194506     0.27000
C675        C  0.52939207  0.76558553  0.77115636     0.27000
C676        C  0.46788397  0.71712979  0.73538662     0.35600
C677        C  0.46825671  0.74086440  0.75897786     0.35600
C678        C  0.55632704  0.71963295  0.73171377     0.35600
C679        C  0.55676430  0.74296453  0.75582282     0.35600
C680        C  0.50013403  0.69589418  0.69191722    -0.21900
C681        C  0.52148779  0.69644136  0.69109835    -0.21900
C682        C  0.50160396  0.78417014  0.77968242    -0.21900
C683        C  0.52298584  0.78448347  0.77922313    -0.21900
C684        C  0.44872775  0.71625937  0.74509838    -0.22900
C685        C  0.44897909  0.73126933  0.76010435    -0.22900
C686        C  0.57656241  0.72039861  0.73906819    -0.22900
C687        C  0.57682490  0.73509951  0.75442411    -0.22900
C688        C  0.47372688  0.70495397  0.71826378    -0.18300
C689        C  0.54945523  0.70701878  0.71522961    -0.18300
C690        C  0.55046786  0.75941005  0.76892359    -0.18300
C691        C  0.47451984  0.75808996  0.77095066    -0.18300
H692        H  0.48997609  0.69013631  0.67989967     0.14600
H693        H  0.53093455  0.69114680  0.67834472     0.14600
H694        H  0.49173667  0.79661724  0.78516551     0.14600
H695        H  0.53269565  0.79724118  0.78424597     0.14600
H696        H  0.43592891  0.70588282  0.74173473     0.12900
H697        H  0.43639374  0.73470585  0.77062721     0.12900
H698        H  0.58975048  0.71133986  0.73388671     0.12900
H699        H  0.59029005  0.73954167  0.76342740     0.12900
H700        H  0.51221040  0.71441313  0.73675493     0.26200
H701        H  0.51261230  0.73852923  0.76178700     0.26200
C702        C  0.37121309  0.12355077  0.12197726    -0.02500
C703        C  0.64775456  0.12736698  0.12261683    -0.02500
N704        N  0.01037543  0.71502740  0.21000148    -0.36600
N705        N  0.97779485  0.74090110  0.22892456    -0.57200
N706        N  0.01020598  0.76246336  0.25131393    -0.36600
N707        N  0.04284616  0.73907671  0.22964322    -0.57200
C708        C  0.99342998  0.71057166  0.19841111     0.27000
C709        C  0.02736269  0.70974696  0.19880416     0.27000
C710        C  0.99350670  0.77493253  0.25443187     0.27000
C711        C  0.02743903  0.77400025  0.25481316     0.27000
C712        C  0.96619162  0.72519457  0.22123004     0.35600
C713        C  0.96610112  0.75033046  0.24353040     0.35600
C714        C  0.05438162  0.72304304  0.22252266     0.35600
C715        C  0.05424199  0.74833578  0.24452502     0.35600
C716        C  0.99966228  0.70253600  0.17960845    -0.21900
C717        C  0.02106117  0.70220666  0.17976630    -0.21900
C718        C  0.00031788  0.79473937  0.25951203    -0.21900
C719        C  0.02172408  0.79406112  0.26002367    -0.21900
C720        C  0.94695713  0.72470000  0.23078551    -0.22900
C721        C  0.94698195  0.74044714  0.24510982    -0.22900
C722        C  0.07322508  0.72215576  0.23296039    -0.22900
C723        C  0.07320290  0.73832927  0.24678951    -0.22900
C724        C  0.97252370  0.71197663  0.20503660    -0.18300
C725        C  0.04823884  0.71001605  0.20603321    -0.18300
C726        C  0.04803671  0.76633054  0.25526357    -0.18300
C727        C  0.97242407  0.76826432  0.25461596    -0.18300
H728        H  0.98978952  0.69727033  0.16713895     0.14600
H729        H  0.03084981  0.69671917  0.16735573     0.14600
H730        H  0.99084431  0.80820030  0.26294198     0.14600
H731        H  0.03193539  0.80680779  0.26399883     0.14600
H732        H  0.93433187  0.71397286  0.22789250     0.12900
H733        H  0.93436813  0.74399882  0.25554099     0.12900
H734        H  0.08567872  0.71102809  0.23094730     0.12900
H735        H  0.08565884  0.74222625  0.25734408     0.12900
H736        H  0.01023545  0.71982894  0.22529692     0.26200
H737        H  0.00990605  0.74653015  0.24870725     0.26200
N738        N  0.75012031  0.99608838  0.20468446    -0.36600
N739        N  0.77313704  0.02729469  0.22848606    -0.57200
N740        N  0.79788815  0.99405817  0.24696111    -0.36600
N741        N  0.77253578  0.96288173  0.22539659    -0.57200
C742        C  0.73858443  0.01331919  0.20120056     0.27000
C743        C  0.73817134  0.97948780  0.19974813     0.27000
C744        C  0.80382836  0.01039124  0.25879617     0.27000
C745        C  0.80360596  0.97642182  0.25694316     0.27000
C746        C  0.76282842  0.04000812  0.21532707     0.35600
C747        C  0.78776550  0.03899988  0.23801596     0.35600
C748        C  0.76250065  0.95163890  0.21086135     0.35600
C749        C  0.78768406  0.95051736  0.23308933     0.35600
C750        C  0.71906549  0.00760608  0.19398724    -0.21900
C751        C  0.71879271  0.98627583  0.19311461    -0.21900
C752        C  0.81388969  0.00290105  0.27625400    -0.21900
C753        C  0.81348855  0.98161077  0.27520971    -0.21900
C754        C  0.77082402  0.05993404  0.21660122    -0.22900
C755        C  0.78641383  0.05936339  0.23111556    -0.22900
C756        C  0.77131750  0.93205410  0.20931751    -0.22900
C757        C  0.78723120  0.93132183  0.22345519    -0.22900
C758        C  0.74560753  0.03409447  0.20299149    -0.18300
C759        C  0.74473394  0.95847068  0.19987359    -0.18300
C760        C  0.80088321  0.95576140  0.24974978    -0.18300
C761        C  0.80129725  0.03182014  0.25383852    -0.18300
H762        H  0.70636328  0.01777900  0.18965137     0.14600
H763        H  0.70584585  0.97685374  0.18798562     0.14600
H764        H  0.82102903  0.01165322  0.28856352     0.14600
H765        H  0.81994562  0.97117583  0.28663423     0.14600
H766        H  0.76579570  0.07356548  0.20818613     0.12900
H767        H  0.79553280  0.07255893  0.23604812     0.12900
H768        H  0.76671707  0.91955263  0.19916146     0.12900
H769        H  0.79728237  0.91813967  0.22637367     0.12900
H770        H  0.76573677  0.99579677  0.20877644     0.26200
H771        H  0.79118752  0.99486359  0.23244299     0.26200
N772        N  0.78910355  0.21990876  0.47985628    -0.36600
N773        N  0.76417402  0.23859316  0.51263688    -0.57200
N774        N  0.74196804  0.26218436  0.48120845    -0.36600
N775        N  0.76435660  0.24096154  0.44848893    -0.57200
C776        C  0.79368560  0.20769103  0.49620394     0.27000
C777        C  0.79372773  0.20892093  0.46272370     0.27000
C778        C  0.72987026  0.26460061  0.49813421     0.27000
C779        C  0.72977522  0.26575858  0.46449396     0.27000
C780        C  0.78008229  0.23051898  0.52371161     0.35600
C781        C  0.75509538  0.25319150  0.52461694     0.35600
C782        C  0.77994858  0.23345012  0.43669483     0.35600
C783        C  0.75486230  0.25596038  0.43731465     0.35600
C784        C  0.80110806  0.18866915  0.48940022    -0.21900
C785        C  0.80114023  0.18944860  0.46822863    -0.21900
C786        C  0.70971398  0.26937511  0.49207129    -0.21900
C787        C  0.70966082  0.27012849  0.47088042    -0.21900
C788        C  0.78111546  0.23992042  0.54286406    -0.22900
C789        C  0.76537048  0.25443324  0.54338774    -0.22900
C790        C  0.78036173  0.24361128  0.41788510    -0.22900
C791        C  0.76453164  0.25800406  0.41832116    -0.22900
C792        C  0.79279477  0.21393327  0.51702994    -0.18300
C793        C  0.79283278  0.21662206  0.44236173    -0.18300
C794        C  0.73675926  0.26666926  0.44376352    -0.18300
C795        C  0.73706067  0.26448037  0.51885186    -0.18300
H796        H  0.80618404  0.17566769  0.49873200     0.14600
H797        H  0.80623568  0.17716019  0.45804212     0.14600
H798        H  0.69646930  0.27232289  0.50193159     0.14600
H799        H  0.69635125  0.27371503  0.46126848     0.14600
H800        H  0.79212263  0.23672861  0.55511083     0.12900
H801        H  0.76200176  0.26470781  0.55612485     0.12900
H802        H  0.79091804  0.24090743  0.40518639     0.12900
H803        H  0.76059495  0.26864562  0.40600562     0.12900
H804        H  0.78456074  0.23541291  0.48039893     0.26200
H805        H  0.75801512  0.25993048  0.48113578     0.26200
N806        N  0.24425951  0.76338064  0.48169383    -0.36600
N807        N  0.26469354  0.73842982  0.51349151    -0.57200
N808        N  0.28911881  0.71740496  0.48134178    -0.36600
N809        N  0.26638302  0.74000455  0.44948527    -0.57200
C810        C  0.23266314  0.76850620  0.49836920     0.27000
C811        C  0.23352220  0.76937150  0.46472237     0.27000
C812        C  0.29549501  0.70669095  0.49816006     0.27000
C813        C  0.29579192  0.70698010  0.46447024     0.27000
C814        C  0.25445337  0.75197289  0.52579368     0.35600
C815        C  0.27854567  0.72829545  0.52560056     0.35600
C816        C  0.25638435  0.75395637  0.43742473     0.35600
C817        C  0.27988845  0.72966732  0.43721046     0.35600
C818        C  0.21446732  0.77812427  0.49188769    -0.21900
C819        C  0.21500700  0.77868225  0.47072760    -0.21900
C820        C  0.30669230  0.68938811  0.49192586    -0.21900
C821        C  0.30692087  0.68958103  0.47075953    -0.21900
C822        C  0.26167362  0.75023926  0.54585799    -0.22900
C823        C  0.27688133  0.73524009  0.54574296    -0.22900
C824        C  0.26347760  0.75237880  0.41731644    -0.22900
C825        C  0.27822922  0.73692622  0.41715252    -0.22900
C826        C  0.23824598  0.76545818  0.51933412    -0.18300
C827        C  0.24003836  0.76721020  0.44393908    -0.18300
C828        C  0.29292569  0.71305285  0.44358197    -0.18300
C829        C  0.29225835  0.71238207  0.51902164    -0.18300
H830        H  0.20200174  0.78406612  0.50141269     0.14600
H831        H  0.20301350  0.78514105  0.46088879     0.14600
H832        H  0.31408455  0.67783677  0.50161633     0.14600
H833        H  0.31467185  0.67822809  0.46118440     0.14600
H834        H  0.25658724  0.75891136  0.55920687     0.12900
H835        H  0.28574811  0.73008413  0.55899323     0.12900
H836        H  0.25837848  0.76124801  0.40405820     0.12900
H837        H  0.28664035  0.73159199  0.40373101     0.12900
H838        H  0.25910886  0.75707787  0.48187861     0.26200
H839        H  0.28139784  0.73149513  0.48148225     0.26200
C840        C  0.88363005  0.13128126  0.34653576    -0.02500
N841        N  0.99089802  0.01200268  0.52239308    -0.06100
N842        N  0.98744722  0.02653173  0.53633284    -0.58200
N843        N  0.97348446  0.96491820  0.50980676    -0.05800
N844        N  0.95844292  0.95186431  0.51456661    -0.60400
N845        N  0.98822215  0.96440451  0.52391543    -0.05400
N846        N  0.98355245  0.95078734  0.53846602    -0.58200
N847        N  0.97615599  0.01221301  0.50831569    -0.05100
N848        N  0.96242582  0.02684980  0.51234955    -0.60700
C849        C  0.96969727  0.03577571  0.52975631     0.96100
C850        C  0.96496654  0.94301297  0.53235394     0.95800
N851        N  0.98594472  0.96282835  0.44615779    -0.06300
N852        N  0.98042196  0.94911081  0.43205459    -0.58800
N853        N  0.97488952  0.01126795  0.45997099    -0.04400
N854        N  0.96144130  0.02628580  0.45612988    -0.60100
N855        N  0.98921752  0.01053836  0.44553533    -0.06300
N856        N  0.98590663  0.02520748  0.43164559    -0.59100
N857        N  0.97190024  0.96375687  0.46085250    -0.04100
N858        N  0.95649921  0.95071409  0.45701006    -0.60100
Mn859      Mn  0.97363574  0.98798952  0.48476176     1.18400
C860        C  0.96222762  0.94144678  0.43919774     0.98100
C861        C  0.96858823  0.03497443  0.43853722     0.98800
N862        N  0.03718160  0.96173729  0.52322991    -0.06300
N863        N  0.04044584  0.94795928  0.53794756    -0.62700
N864        N  0.05450282  0.00763794  0.50698070    -0.05100
N865        N  0.06949915  0.02130323  0.51013701    -0.63300
N866        N  0.04008738  0.00935057  0.52128230    -0.05900
N867        N  0.04486814  0.02438909  0.53428862    -0.62900
N868        N  0.05131935  0.95998447  0.50868350    -0.04700
N869        N  0.06449956  0.94485465  0.51328510    -0.63600
Mn870      Mn  0.01414048  0.98693669  0.52323345     1.10700
C871        C  0.05743231  0.93740212  0.53154484     0.99400
C872        C  0.06319585  0.03176967  0.52709862     0.99400
N873        N  0.03831572  0.00680319  0.44402670    -0.05900
N874        N  0.04274074  0.02010509  0.42918747    -0.61200
N875        N  0.04966484  0.95859264  0.45957744    -0.05200
N876        N  0.06233075  0.94293583  0.45551742    -0.58000
N877        N  0.03476083  0.95954655  0.44566398    -0.06500
N878        N  0.03697968  0.94467698  0.43191756    -0.60800
N879        N  0.05327256  0.00642824  0.45791629    -0.05500
N880        N  0.06810033  0.01975699  0.45282589    -0.58000
Mn881      Mn  0.01208414  0.98496441  0.44488470     1.20200
Mn882      Mn  0.05286966  0.98307582  0.48326895     1.10100
Cl883      Cl  0.01321309  0.98573202  0.48404633    -0.86000
C884        C  0.06125587  0.02822562  0.43488266     0.96400
C885        C  0.05411329  0.93431395  0.43828372     0.96200
C886        C  0.87304169  0.85257482  0.34465307    -0.02500
C887        C  0.14709146  0.84833849  0.34621787    -0.02500
C888        C  0.14821811  0.84494558  0.62138220    -0.02500
C889        C  0.87515375  0.12529779  0.61850466    -0.02500
C890        C  0.87335608  0.85094570  0.62113945    -0.02500
N891        N  0.78415679  0.76115983  0.48262244    -0.36600
N892        N  0.75983235  0.74053828  0.51552543    -0.57200
N893        N  0.73647360  0.71910467  0.48422262    -0.36600
N894        N  0.75839113  0.74209350  0.45132643    -0.57200
C895        C  0.79057438  0.77179391  0.49943711     0.27000
C896        C  0.79030859  0.77203183  0.46578078     0.27000
C897        C  0.72498974  0.71536829  0.50136835     0.27000
C898        C  0.72364915  0.71703327  0.46778751     0.27000
C899        C  0.77544813  0.74890268  0.52673145     0.35600
C900        C  0.75087115  0.72580802  0.52748990     0.35600
C901        C  0.77343216  0.75003674  0.43905209     0.35600
C902        C  0.74770528  0.72818496  0.43988380     0.35600
C903        C  0.80119091  0.78946347  0.49323054    -0.21900
C904        C  0.80118433  0.78952614  0.47208336    -0.21900
C905        C  0.70461005  0.71115053  0.49573640    -0.21900
C906        C  0.70376245  0.71220181  0.47457548    -0.21900
C907        C  0.77633176  0.73964533  0.54598419    -0.22900
C908        C  0.76102909  0.72474164  0.54633887    -0.22900
C909        C  0.77211540  0.74132905  0.41958462    -0.22900
C910        C  0.75603113  0.72726118  0.42019298    -0.22900
C911        C  0.78823808  0.76549780  0.52023252    -0.18300
C912        C  0.78726985  0.76608793  0.44491930    -0.18300
C913        C  0.72984501  0.71734303  0.44680553    -0.18300
C914        C  0.73280849  0.71449210  0.52183140    -0.18300
H915        H  0.80853865  0.80100260  0.50292100     0.14600
H916        H  0.80865973  0.80110303  0.46256371     0.14600
H917        H  0.69170446  0.70755660  0.50582046     0.14600
H918        H  0.69010825  0.70941257  0.46518919     0.14600
H919        H  0.78705996  0.74311171  0.55838534     0.12900
H920        H  0.75781187  0.71442924  0.55909993     0.12900
H921        H  0.78170165  0.74468370  0.40630957     0.12900
H922        H  0.75103709  0.71761941  0.40748373     0.12900
H923        H  0.77686957  0.74680605  0.48274050     0.26200
H924        H  0.75250935  0.72125579  0.48362435     0.26200
C925        C  0.14671544  0.12867535  0.34762454    -0.02500
C926        C  0.15009907  0.12122433  0.62093008    -0.02500
N927        N  0.00881922  0.75288314  0.70759245    -0.36600
N928        N  0.97605247  0.73640323  0.73430599    -0.57200
N929        N  0.00783800  0.71425360  0.75789914    -0.36600
N930        N  0.04064770  0.73289493  0.73333859    -0.57200
C931        C  0.99232477  0.76483250  0.70199835     0.27000
C932        C  0.02630502  0.76279681  0.70131044     0.27000
C933        C  0.99085485  0.71225206  0.77005884     0.27000
C934        C  0.02478691  0.71053145  0.76981504     0.27000
C935        C  0.96439358  0.74400586  0.71863264     0.35600
C936        C  0.96384980  0.72289067  0.74474057     0.35600
C937        C  0.05286115  0.73987467  0.71785638     0.35600
C938        C  0.05228448  0.71938260  0.74447819     0.35600
C939        C  0.99949590  0.78234262  0.69174854    -0.21900
C940        C  0.02083700  0.78114064  0.69148102    -0.21900
C941        C  0.99718312  0.70759817  0.79001877    -0.21900
C942        C  0.01854874  0.70621698  0.78977966    -0.21900
C943        C  0.94459457  0.73550978  0.71929994    -0.22900
C944        C  0.94439457  0.72182376  0.73552373    -0.22900
C945        C  0.07242892  0.73085400  0.71926108    -0.22900
C946        C  0.07205505  0.71785668  0.73612571    -0.22900
C947        C  0.97100370  0.75971284  0.70485711    -0.18300
C948        C  0.04706029  0.75551332  0.70354079    -0.18300
C949        C  0.04560469  0.70950504  0.76281153    -0.18300
C950        C  0.96984066  0.71256572  0.76313591    -0.18300
H951        H  0.99045584  0.79474035  0.68493023     0.14600
H952        H  0.03113972  0.79254320  0.68471998     0.14600
H953        H  0.98739131  0.70500154  0.80332644     0.14600
H954        H  0.02837455  0.70234569  0.80279530     0.14600
H955        H  0.93157613  0.73867112  0.70920057     0.12900
H956        H  0.93128971  0.71230405  0.73995226     0.12900
H957        H  0.08566631  0.73355807  0.70932433     0.12900
H958        H  0.08494195  0.70861472  0.74177763     0.12900
H959        H  0.00815061  0.73828710  0.71438181     0.26200
H960        H  0.00775014  0.71632810  0.74201806     0.26200
N961        N  0.73641514  0.99035628  0.75289426    -0.36600
N962        N  0.75942650  0.02230371  0.73020718    -0.57200
N963        N  0.78219533  0.98933944  0.70880689    -0.36600
N964        N  0.75962420  0.95738690  0.73184873    -0.57200
C965        C  0.72985868  0.00751744  0.76304255     0.27000
C966        C  0.72952459  0.97364292  0.76355851     0.27000
C967        C  0.78814736  0.00591290  0.69724306     0.27000
C968        C  0.78935378  0.97191234  0.69940730     0.27000
C969        C  0.74670982  0.03489013  0.74113262     0.35600
C970        C  0.76932888  0.03439205  0.71629956     0.35600
C971        C  0.74874021  0.94537295  0.74507333     0.35600
C972        C  0.77327972  0.94476872  0.72216438     0.35600
C973        C  0.71849353  0.00154555  0.78023559    -0.21900
C974        C  0.71812009  0.98027085  0.78044160    -0.21900
C975        C  0.79980967  0.99873580  0.68068964    -0.21900
C976        C  0.80005551  0.97753101  0.68175013    -0.21900
C977        C  0.74853496  0.05513669  0.73417180    -0.22900
C978        C  0.76271428  0.05482497  0.71842978    -0.22900
C979        C  0.75541060  0.92496428  0.74371283    -0.22900
C980        C  0.77122780  0.92465567  0.72959770    -0.22900
C981        C  0.73326595  0.02849482  0.75718522    -0.18300
C982        C  0.73338374  0.95248418  0.75896729    -0.18300
C983        C  0.78715351  0.95099632  0.70634071    -0.18300
C984        C  0.78355905  0.02731062  0.70107478    -0.18300
H985        H  0.71127106  0.01146074  0.79162642     0.14600
H986        H  0.71064971  0.97077090  0.79203667     0.14600
H987        H  0.80763596  0.00751473  0.66885250     0.14600
H988        H  0.80744742  0.96745184  0.67062043     0.14600
H989        H  0.74017070  0.06869090  0.73951420     0.12900
H990        H  0.76708642  0.06814251  0.70924311     0.12900
H991        H  0.74994530  0.91172267  0.75242939     0.12900
H992        H  0.78019072  0.91105952  0.72551419     0.12900
H993        H  0.74450440  0.99004120  0.73916658     0.26200
H994        H  0.77438862  0.98986127  0.72268618     0.26200
N995        N  0.77740893  0.71181372  0.98498708    -0.36600
N996        N  0.75369917  0.73480441  0.95317335    -0.57200
N997        N  0.73604153  0.75926429  0.98567627    -0.36600
N998        N  0.75695847  0.73373070  0.01768062    -0.57200
C999        C  0.77972636  0.70009764  0.96791901     0.27000
C1000       C  0.78119344  0.69939096  0.00141191     0.27000
C1001       C  0.72327721  0.76328121  0.96947222     0.27000
C1002       C  0.72501647  0.76280088  0.00305150     0.27000
C1003       C  0.76909461  0.72617481  0.94196050     0.35600
C1004       C  0.74661624  0.75125373  0.94221343     0.35600
C1005       C  0.77285442  0.72489859  0.02827117     0.35600
C1006       C  0.75070473  0.75041392  0.02865889     0.35600
C1007       C  0.78465539  0.67988182  0.97344619    -0.21900
C1008       C  0.78536844  0.67937233  0.99465182    -0.21900
C1009       C  0.70375434  0.76883525  0.97668462    -0.21900
C1010       C  0.70487683  0.76861720  0.99787687    -0.21900
C1011       C  0.77183316  0.73707651  0.92375166    -0.22900
C1012       C  0.75771298  0.75313782  0.92400417    -0.22900
C1013       C  0.77678551  0.73610185  0.04607036    -0.22900
C1014       C  0.76270971  0.75225990  0.04633559    -0.22900
C1015       C  0.77984372  0.70794662  0.94763745    -0.18300
C1016       C  0.78311990  0.70646994  0.02199276    -0.18300
C1017       C  0.73347198  0.76303314  0.02323580    -0.18300
C1018       C  0.72964851  0.76373036  0.94853737    -0.18300
H1019       H  0.78786153  0.66699653  0.96323074     0.14600
H1020       H  0.78915534  0.66595066  0.00399169     0.14600
H1021       H  0.69021252  0.77298399  0.96763068     0.14600
H1022       H  0.69239629  0.77266825  0.00831118     0.14600
H1023       H  0.78298899  0.73393319  0.91167090     0.12900
H1024       H  0.75609556  0.76493475  0.91223604     0.12900
H1025       H  0.78868266  0.73318924  0.05753023     0.12900
H1026       H  0.76160014  0.76408677  0.05810850     0.12900
H1027       H  0.77535347  0.72785711  0.98520744     0.26200
H1028       H  0.75194324  0.75611123  0.98500913     0.26200
C1029       C  0.95483385  0.77203594  0.69362207    -0.01300
C1030       C  0.94312876  0.76311278  0.67769511    -0.09300
C1031       C  0.92807701  0.77473204  0.66711170    -0.18100
C1032       C  0.92492012  0.79600150  0.67160122     0.04300
C1033       C  0.93744468  0.80514670  0.68720337     0.18400
C1034       C  0.95154441  0.79296596  0.69857032    -0.19600
C1035       C  0.93631708  0.82653556  0.69088305    -0.20800
C1036       C  0.92373468  0.83918524  0.67870210    -0.19400
C1037       C  0.91101681  0.83058205  0.66340193     0.19800
C1038       C  0.91053852  0.80877693  0.66049853     0.02000
C1039       C  0.89542253  0.80073324  0.64692626    -0.14100
C1040       C  0.88251937  0.81393312  0.63546571    -0.11800
C1041       C  0.88524645  0.83571234  0.63574951     0.01500
C1042       C  0.89893672  0.84369753  0.65083632    -0.24000
H1043       H  0.94567993  0.74705167  0.67343364     0.09500
H1044       H  0.91978525  0.76699154  0.65486081     0.13100
H1045       H  0.96068729  0.79996934  0.71078098     0.11800
H1046       H  0.94586382  0.83364806  0.70270471     0.13000
H1047       H  0.92386219  0.85579875  0.68134897     0.12000
H1048       H  0.89281445  0.78424730  0.64541774     0.09100
H1049       H  0.87048247  0.80665793  0.62641336     0.12400
H1050       H  0.90067197  0.86032074  0.65247683     0.14200
C1051       C  0.86083177  0.86555467  0.63569315    -0.01300
C1052       C  0.86881018  0.88515057  0.64146002    -0.09300
C1053       C  0.85797368  0.89829163  0.65463693    -0.18100
C1054       C  0.83813860  0.89286933  0.66202762     0.04300
C1055       C  0.82974080  0.87342073  0.65612030     0.18400
C1056       C  0.84196089  0.85923768  0.64488689    -0.19600
C1057       C  0.80892806  0.86877047  0.66066516    -0.20800
C1058       C  0.79620574  0.88349403  0.67019288    -0.19400
C1059       C  0.80453948  0.90235430  0.67712762     0.19800
C1060       C  0.82601245  0.90655779  0.67432458     0.02000
C1061       C  0.83457246  0.92410280  0.68418846    -0.14100
C1062       C  0.82201468  0.93761027  0.69539997    -0.11800
C1063       C  0.80039822  0.93482493  0.69616927     0.01500
C1064       C  0.79172839  0.91703371  0.68697695    -0.24000
H1065       H  0.88380528  0.89046924  0.63606429     0.09500
H1066       H  0.86499128  0.91315795  0.65785258     0.13100
H1067       H  0.83597506  0.84380786  0.64188978     0.11800
H1068       H  0.80218672  0.85412438  0.65588727     0.13000
H1069       H  0.77991357  0.87990878  0.67260496     0.12000
H1070       H  0.85104760  0.92733959  0.68403325     0.09100
H1071       H  0.82913967  0.95080045  0.70297741     0.12400
H1072       H  0.77506537  0.91451203  0.68771433     0.14200
C1073       C  0.79976650  0.77744011  0.53608506    -0.01300
C1074       C  0.78970091  0.79319636  0.54701159    -0.09300
C1075       C  0.80087708  0.80608306  0.56032447    -0.18100
C1076       C  0.82261678  0.80356204  0.56300618     0.04300
C1077       C  0.83258864  0.78716755  0.55212942     0.18400
C1078       C  0.82113452  0.77435530  0.53879596    -0.19600
C1079       C  0.85397794  0.78378923  0.55445370    -0.20800
C1080       C  0.86573142  0.79625540  0.56749536    -0.19400
C1081       C  0.85639180  0.81243337  0.57850820     0.19800
C1082       C  0.83479652  0.81651781  0.57621969     0.02000
C1083       C  0.82647583  0.83362759  0.58699093    -0.14100
C1084       C  0.83864008  0.84497278  0.60080777    -0.11800
C1085       C  0.85947032  0.83940122  0.60506094     0.01500
C1086       C  0.86852097  0.82432914  0.59209978    -0.24000
H1087       H  0.77317509  0.79580555  0.54486345     0.09500
H1088       H  0.79207931  0.81786350  0.56825534     0.13100
H1089       H  0.82886884  0.76218393  0.53016292     0.11800
H1090       H  0.86166340  0.77133910  0.54619806     0.13000
H1091       H  0.88222468  0.79308973  0.56912674     0.12000
H1092       H  0.81065051  0.83879671  0.58491727     0.09100
H1093       H  0.83153903  0.85849716  0.60764401     0.12400
H1094       H  0.88504421  0.82112632  0.59344347     0.14200
C1095       C  0.79398282  0.04340540  0.68798521    -0.01300
C1096       C  0.79181470  0.04340690  0.66646399    -0.09300
C1097       C  0.80380396  0.05667595  0.65424427    -0.18100
C1098       C  0.81699616  0.07160446  0.66336001     0.04300
C1099       C  0.81656784  0.07367858  0.68512249     0.18400
C1100       C  0.80607750  0.05897368  0.69720894    -0.19600
C1101       C  0.82661456  0.09040934  0.69459763    -0.20800
C1102       C  0.83740143  0.10488265  0.68282228    -0.19400
C1103       C  0.83994405  0.10186467  0.66160399     0.19800
C1104       C  0.83036430  0.08479585  0.65172323     0.02000
C1105       C  0.83523388  0.08118570  0.63088991    -0.14100
C1106       C  0.84957874  0.09370205  0.62049261    -0.11800
C1107       C  0.85928988  0.11085559  0.63011809     0.01500
C1108       C  0.85262246  0.11547662  0.65041083    -0.24000
H1109       H  0.78148985  0.03241908  0.65904279     0.09500
H1110       H  0.80206333  0.05540476  0.63774692     0.13100
H1111       H  0.80712865  0.05973146  0.71387109     0.11800
H1112       H  0.82585690  0.09248160  0.71114784     0.13000
H1113       H  0.84477295  0.11786755  0.69052944     0.12000
H1114       H  0.82893637  0.06811016  0.62256368     0.09100
H1115       H  0.85262508  0.08954232  0.60481553     0.12400
H1116       H  0.85764494  0.12952918  0.65803593     0.14200
C1117       C  0.13389016  0.83075647  0.63490972    -0.01300
C1118       C  0.13169956  0.83323179  0.65643370    -0.09300
C1119       C  0.11875596  0.82039695  0.66806332    -0.18100
C1120       C  0.10615964  0.80522889  0.65864739     0.04300
C1121       C  0.10646507  0.80401384  0.63682452     0.18400
C1122       C  0.12032408  0.81641136  0.62531955    -0.19600
C1123       C  0.09261667  0.79072833  0.62661817    -0.20800
C1124       C  0.07845006  0.77870560  0.63767984    -0.19400
C1125       C  0.07831195  0.77903430  0.65927250     0.19800
C1126       C  0.09254473  0.79195115  0.67007488     0.02000
C1127       C  0.09259550  0.79096504  0.69186150    -0.14100
C1128       C  0.07839829  0.77851248  0.70246910    -0.11800
C1129       C  0.06373486  0.76657382  0.69182987     0.01500
C1130       C  0.06393105  0.76668856  0.67018150    -0.24000
H1131       H  0.13921902  0.84560088  0.66473246     0.09500
H1132       H  0.11817397  0.82344100  0.68438332     0.13100
H1133       H  0.12044859  0.81510420  0.60866421     0.11800
H1134       H  0.09249052  0.78989389  0.60994100     0.13000
H1135       H  0.06767095  0.76891480  0.62928611     0.12000
H1136       H  0.10352140  0.79955791  0.70113798     0.09100
H1137       H  0.07851356  0.77858472  0.71916133     0.12400
H1138       H  0.05262439  0.75740336  0.66188095     0.14200
C1139       C  0.85822250  0.83888147  0.35793414    -0.01300
C1140       C  0.84283400  0.84850604  0.37010368    -0.09300
C1141       C  0.83021511  0.83711367  0.38352692    -0.18100
C1142       C  0.83301578  0.81550432  0.38615511     0.04300
C1143       C  0.84924298  0.80583094  0.37484167     0.18400
C1144       C  0.86129087  0.81732373  0.36074457    -0.19600
C1145       C  0.85373856  0.78477074  0.37802472    -0.20800
C1146       C  0.84254044  0.77312655  0.39228489    -0.19400
C1147       C  0.82611234  0.78204312  0.40332010     0.19800
C1148       C  0.82077696  0.80325832  0.40006309     0.02000
C1149       C  0.80334341  0.81120579  0.41077348    -0.14100
C1150       C  0.79215909  0.79880846  0.42455969    -0.11800
C1151       C  0.79816182  0.77827272  0.42853929     0.01500
C1152       C  0.81504871  0.76990246  0.41769782    -0.24000
H1153       H  0.84061364  0.86516313  0.36921268     0.09500
H1154       H  0.81885750  0.84579957  0.39217735     0.13100
H1155       H  0.87372814  0.80938213  0.35276801     0.11800
H1156       H  0.86624754  0.77730022  0.36963885     0.13000
H1157       H  0.84666568  0.75696371  0.39457866     0.12000
H1158       H  0.79784663  0.82688380  0.40865942     0.09100
H1159       H  0.77900896  0.80546026  0.43264599     0.12400
H1160       H  0.81964635  0.75395725  0.42060788     0.14200
C1161       C  0.07582697  0.04760760  0.53781879    -0.01300
C1162       C  0.06621774  0.06369261  0.54873673    -0.09300
C1163       C  0.07808348  0.07800865  0.55990708    -0.18100
C1164       C  0.10003147  0.07624691  0.56098431     0.04300
C1165       C  0.10963867  0.05969800  0.55005883     0.18400
C1166       C  0.09756904  0.04594689  0.53820742    -0.19600
C1167       C  0.13115521  0.05653283  0.55161335    -0.20800
C1168       C  0.14324977  0.06896033  0.56443888    -0.19400
C1169       C  0.13421733  0.08520552  0.57561685     0.19800
C1170       C  0.11267436  0.08961092  0.57335599     0.02000
C1171       C  0.10480271  0.10724860  0.58357824    -0.14100
C1172       C  0.11711382  0.11826867  0.59754256    -0.11800
C1173       C  0.13734056  0.11146709  0.60282495     0.01500
C1174       C  0.14643130  0.09660038  0.58964439    -0.24000
H1175       H  0.04941470  0.06515150  0.54869355     0.09500
H1176       H  0.06961341  0.08978778  0.56820619     0.13100
H1177       H  0.10504373  0.03327824  0.53006860     0.11800
H1178       H  0.13858525  0.04392145  0.54337034     0.13000
H1179       H  0.15972115  0.06560885  0.56589718     0.12000
H1180       H  0.08920659  0.11291741  0.58102032     0.09100
H1181       H  0.11040272  0.13196033  0.60450863     0.12400
H1182       H  0.16275543  0.09274214  0.59147031     0.14200
C1183       C  0.07327069  0.04291609  0.42191730    -0.01300
C1184       C  0.07024074  0.04332234  0.40051959    -0.09300
C1185       C  0.08185515  0.05662578  0.38794033    -0.18100
C1186       C  0.09675586  0.07033031  0.39645691     0.04300
C1187       C  0.09918921  0.07037396  0.41826272     0.18400
C1188       C  0.08777367  0.05651460  0.43067969    -0.19600
C1189       C  0.11300118  0.08428301  0.42757726    -0.20800
C1190       C  0.12449846  0.09814816  0.41574865    -0.19400
C1191       C  0.12281942  0.09823714  0.39423124     0.19800
C1192       C  0.10920004  0.08410723  0.38423054     0.02000
C1193       C  0.10908337  0.08406127  0.36246928    -0.14100
C1194       C  0.12140083  0.09793131  0.35124011    -0.11800
C1195       C  0.13374458  0.11316412  0.36101955     0.01500
C1196       C  0.13487813  0.11234772  0.38274523    -0.24000
H1197       H  0.05903752  0.03301425  0.39338655     0.09500
H1198       H  0.07865150  0.05600925  0.37164425     0.13100
H1199       H  0.08996316  0.05651596  0.44725026     0.11800
H1200       H  0.11484099  0.08453730  0.44417680     0.13000
H1201       H  0.13491653  0.10881266  0.42351781     0.12000
H1202       H  0.09986318  0.07326562  0.35366029     0.09100
H1203       H  0.12083321  0.09718631  0.33457417     0.12400
H1204       H  0.14544416  0.12231533  0.39107421     0.14200
C1205       C  0.95186714  0.92900256  0.54485298    -0.01300
C1206       C  0.93025915  0.92953028  0.54227823    -0.09300
C1207       C  0.91731550  0.91715715  0.55430353    -0.18100
C1208       C  0.92562312  0.90341801  0.56920334     0.04300
C1209       C  0.94763400  0.90229434  0.57125345     0.18400
C1210       C  0.96052439  0.91540398  0.55944305    -0.19600
C1211       C  0.95656163  0.88792090  0.58487804    -0.20800
C1212       C  0.94408026  0.87448605  0.59631403    -0.19400
C1213       C  0.92232500  0.87565272  0.59506228     0.19800
C1214       C  0.91284845  0.89052648  0.58185622     0.02000
C1215       C  0.89096892  0.89207436  0.58203447    -0.14100
C1216       C  0.87901365  0.87929931  0.59456920    -0.11800
C1217       C  0.88809856  0.86418107  0.60746345     0.01500
C1218       C  0.90999421  0.86222026  0.60712725    -0.24000
H1219       H  0.92321712  0.93986622  0.53107161     0.09500
H1220       H  0.90088592  0.91844050  0.55123078     0.13100
H1221       H  0.97728713  0.91474570  0.56131131     0.11800
H1222       H  0.97332330  0.88683337  0.58645976     0.13000
H1223       H  0.95150028  0.86333911  0.60647677     0.12000
H1224       H  0.88255537  0.90341584  0.57308743     0.09100
H1225       H  0.86230184  0.88148276  0.59443874     0.12400
H1226       H  0.91770323  0.85043976  0.61622891     0.14200
C1227       C  0.89078108  0.11191893  0.60543001    -0.01300
C1228       C  0.91219863  0.10987067  0.61035864    -0.09300
C1229       C  0.92580239  0.09821175  0.59833369    -0.18100
C1230       C  0.91900227  0.08837211  0.58022023     0.04300
C1231       C  0.89791083  0.09116155  0.57434274     0.18400
C1232       C  0.88435653  0.10297926  0.58659135    -0.19600
C1233       C  0.89043038  0.08230009  0.55611193    -0.20800
C1234       C  0.90347027  0.07057174  0.54366279    -0.19400
C1235       C  0.92429375  0.06738885  0.54916368     0.19800
C1236       C  0.93243805  0.07620795  0.56752904     0.02000
C1237       C  0.95357436  0.07223533  0.57244172    -0.14100
C1238       C  0.96587044  0.05965475  0.55984389    -0.11800
C1239       C  0.95758544  0.05081993  0.54195175     0.01500
C1240       C  0.93691164  0.05507761  0.53652739    -0.24000
H1241       H  0.91935418  0.11750667  0.62323948     0.09500
H1242       H  0.94173134  0.09756222  0.60351163     0.13100
H1243       H  0.86876814  0.10584137  0.58088347     0.11800
H1244       H  0.87434855  0.08438844  0.55147508     0.13000
H1245       H  0.89717534  0.06381810  0.52969295     0.12000
H1246       H  0.96096774  0.07823414  0.58609647     0.09100
H1247       H  0.98182222  0.05653728  0.56432791     0.12400
H1248       H  0.93033592  0.04821080  0.52273206     0.14200
C1249       C  0.06844277  0.92180586  0.54438432    -0.01300
C1250       C  0.06362021  0.91979010  0.56535373    -0.09300
C1251       C  0.07515818  0.90661185  0.57814371    -0.18100
C1252       C  0.09189554  0.89476757  0.57027719     0.04300
C1253       C  0.09592013  0.89596735  0.54875350     0.18400
C1254       C  0.08440337  0.90956540  0.53612529    -0.19600
C1255       C  0.11159609  0.88376582  0.53998973    -0.20800
C1256       C  0.12349527  0.87049498  0.55215158    -0.19400
C1257       C  0.12051329  0.86958983  0.57350876     0.19800
C1258       C  0.10486830  0.88190058  0.58293601     0.02000
C1259       C  0.10327763  0.88116814  0.60463049    -0.14100
C1260       C  0.11705676  0.86924937  0.61641263    -0.11800
C1261       C  0.13276331  0.85709267  0.60721722     0.01500
C1262       C  0.13348589  0.85673640  0.58546609    -0.24000
H1263       H  0.05118455  0.92888523  0.57209148     0.09500
H1264       H  0.07059756  0.90603041  0.59410598     0.13100
H1265       H  0.08800637  0.91075563  0.51985062     0.11800
H1266       H  0.11467707  0.88447736  0.52359017     0.13000
H1267       H  0.13551328  0.86126740  0.54484701     0.12000
H1268       H  0.09200519  0.89019851  0.61303028     0.09100
H1269       H  0.11569316  0.86980128  0.63303483     0.12400
H1270       H  0.14427488  0.84678688  0.57743675     0.14200
C1271       C  0.13122167  0.85933339  0.36089549    -0.01300
C1272       C  0.11382073  0.86968640  0.35238689    -0.09300
C1273       C  0.09941016  0.88008271  0.36471254    -0.18100
C1274       C  0.10169631  0.88066296  0.38633648     0.04300
C1275       C  0.11869209  0.86973608  0.39514790     0.18400
C1276       C  0.13251133  0.85854343  0.38263177    -0.19600
C1277       C  0.12220714  0.87046404  0.41644743    -0.20800
C1278       C  0.10979805  0.88271705  0.42906029    -0.19400
C1279       C  0.09304272  0.89384867  0.42081120     0.19800
C1280       C  0.08816904  0.89222670  0.39948213     0.02000
C1281       C  0.07016093  0.90252929  0.39223038    -0.14100
C1282       C  0.05852573  0.91523902  0.40524649    -0.11800
C1283       C  0.06452381  0.91824456  0.42578964     0.01500
C1284       C  0.08140829  0.90699610  0.43366411    -0.24000
H1285       H  0.11165342  0.87015927  0.33583484     0.09500
H1286       H  0.08705256  0.88811521  0.35676393     0.13100
H1287       H  0.14428200  0.84948906  0.39033149     0.11800
H1288       H  0.13514615  0.86212305  0.42330662     0.13000
H1289       H  0.11342356  0.88360482  0.44535162     0.12000
H1290       H  0.06476689  0.90120987  0.37655518     0.09100
H1291       H  0.04522951  0.92341459  0.39891044     0.12400
H1292       H  0.08581956  0.90886196  0.44969106     0.14200
C1293       C  0.94844338  0.92799465  0.42698219    -0.01300
C1294       C  0.94888082  0.90644933  0.42942897    -0.09300
C1295       C  0.93604691  0.89370995  0.41740574    -0.18100
C1296       C  0.92232455  0.90229373  0.40252352     0.04300
C1297       C  0.92199577  0.92428295  0.40029755     0.18400
C1298       C  0.93499657  0.93683751  0.41246376    -0.19600
C1299       C  0.90880668  0.93363513  0.38583369    -0.20800
C1300       C  0.89616513  0.92162346  0.37319857    -0.19400
C1301       C  0.89642047  0.89992247  0.37463319     0.19800
C1302       C  0.90920593  0.88994279  0.38952454     0.02000
C1303       C  0.90821687  0.86807411  0.39071798    -0.14100
C1304       C  0.89618686  0.85662971  0.37681338    -0.11800
C1305       C  0.88493279  0.86627560  0.36072746     0.01500
C1306       C  0.88411984  0.88821203  0.36097258    -0.24000
H1307       H  0.95930985  0.89944028  0.44058419     0.09500
H1308       H  0.93736918  0.87722688  0.41996748     0.13100
H1309       H  0.93476471  0.95357961  0.41058000     0.11800
H1310       H  0.90841350  0.95037815  0.38413065     0.13000
H1311       H  0.88634612  0.92937905  0.36197367     0.12000
H1312       H  0.91673860  0.85930991  0.40209924     0.09100
H1313       H  0.89633471  0.83986289  0.37812343     0.12400
H1314       H  0.87398963  0.89659948  0.35061818     0.14200
C1315       C  0.95709163  0.05087558  0.42673235    -0.01300
C1316       C  0.96757518  0.06471787  0.41378449    -0.09300
C1317       C  0.95650357  0.07898712  0.40173403    -0.18100
C1318       C  0.93446061  0.07942104  0.40192545     0.04300
C1319       C  0.92396930  0.06505225  0.41488582     0.18400
C1320       C  0.93531388  0.05135431  0.42746048    -0.19600
C1321       C  0.90220984  0.06407610  0.41483671    -0.20800
C1322       C  0.89061756  0.07679722  0.40182988    -0.19400
C1323       C  0.90047612  0.09114383  0.38887889     0.19800
C1324       C  0.92243245  0.09309116  0.38925029     0.02000
C1325       C  0.93129205  0.10912984  0.37746620    -0.14100
C1326       C  0.91905955  0.12150656  0.36456667    -0.11800
C1327       C  0.89741709  0.11800035  0.36183515     0.01500
C1328       C  0.88838370  0.10369992  0.37573249    -0.24000
H1329       H  0.98441373  0.06445229  0.41293280     0.09500
H1330       H  0.96557078  0.08897379  0.39188873     0.13100
H1331       H  0.92712155  0.04038431  0.43719932     0.11800
H1332       H  0.89410794  0.05309227  0.42461572     0.13000
H1333       H  0.87381248  0.07533760  0.40184568     0.12000
H1334       H  0.94760463  0.11295219  0.37841925     0.09100
H1335       H  0.92699831  0.13440215  0.35751593     0.12400
H1336       H  0.87184115  0.10288033  0.37751346     0.14200
C1337       C  0.16306696  0.83501276  0.35864766    -0.01300
C1338       C  0.16451594  0.81321616  0.35681784    -0.09300
C1339       C  0.17770060  0.80161621  0.36946412    -0.18100
C1340       C  0.19051457  0.81128918  0.38425971     0.04300
C1341       C  0.19081247  0.83332457  0.38471146     0.18400
C1342       C  0.17752597  0.84485338  0.37179807    -0.19600
C1343       C  0.20408698  0.84373571  0.39833965    -0.20800
C1344       C  0.21683064  0.83268479  0.41181242    -0.19400
C1345       C  0.21633854  0.81095471  0.41225093     0.19800
C1346       C  0.20310293  0.79990589  0.39852481     0.02000
C1347       C  0.20260757  0.77797879  0.40009822    -0.14100
C1348       C  0.21482025  0.76752774  0.41459024    -0.11800
C1349       C  0.22793129  0.77849543  0.42788500     0.01500
C1350       C  0.22871035  0.80019056  0.42662021    -0.24000
H1351       H  0.15554330  0.80465411  0.34563641     0.09500
H1352       H  0.17759789  0.78504881  0.36715673     0.13100
H1353       H  0.17761559  0.86166987  0.37269782     0.11800
H1354       H  0.20451040  0.86055669  0.39868881     0.13000
H1355       H  0.22686770  0.84121069  0.42222971     0.12000
H1356       H  0.19259166  0.76848313  0.39070076     0.09100
H1357       H  0.21383435  0.75076559  0.41565893     0.12400
H1358       H  0.23871710  0.80866615  0.43712441     0.14200
C1359       C  0.22639059  0.77723901  0.53531719    -0.01300
C1360       C  0.22751874  0.79892859  0.53585416    -0.09300
C1361       C  0.21624227  0.81031472  0.55038629    -0.18100
C1362       C  0.20336360  0.80028909  0.56502069     0.04300
C1363       C  0.20220927  0.77823177  0.56433744     0.18400
C1364       C  0.21368923  0.76696250  0.54960821    -0.19600
C1365       C  0.18948505  0.76757167  0.57827438    -0.20800
C1366       C  0.17771518  0.77831903  0.59277342    -0.19400
C1367       C  0.17831215  0.80004378  0.59375051     0.19800
C1368       C  0.19134606  0.81131850  0.58006929     0.02000
C1369       C  0.19172898  0.83313386  0.58206310    -0.14100
C1370       C  0.17867748  0.84332851  0.59595993    -0.11800
C1371       C  0.16440081  0.83241767  0.60844770     0.01500
C1372       C  0.16556015  0.81051761  0.60806717    -0.24000
H1373       H  0.23717088  0.80711468  0.52484843     0.09500
H1374       H  0.21781341  0.82694905  0.54963688     0.13100
H1375       H  0.21264626  0.75016385  0.54910406     0.11800
H1376       H  0.18849547  0.75077711  0.57785903     0.13000
H1377       H  0.16784878  0.76955620  0.60314536     0.12000
H1378       H  0.20166636  0.84285441  0.57282147     0.09100
H1379       H  0.17897465  0.86013177  0.59614054     0.12400
H1380       H  0.15631172  0.80129064  0.61848822     0.14200
C1381       C  0.86870798  0.14441165  0.36010505    -0.01300
C1382       C  0.84744532  0.14713861  0.35545486    -0.09300
C1383       C  0.83455565  0.15923803  0.36791742    -0.18100
C1384       C  0.84251420  0.16993208  0.38519611     0.04300
C1385       C  0.86417592  0.16832618  0.38923595     0.18400
C1386       C  0.87685198  0.15562533  0.37695799    -0.19600
C1387       C  0.87314304  0.17951153  0.40545491    -0.20800
C1388       C  0.86093351  0.19195452  0.41808133    -0.19400
C1389       C  0.83941312  0.19327031  0.41498737     0.19800
C1390       C  0.82984539  0.18234189  0.39846316     0.02000
C1391       C  0.80797240  0.18399749  0.39623754    -0.14100
C1392       C  0.79612980  0.19565284  0.41007527    -0.11800
C1393       C  0.80564922  0.20607165  0.42644346     0.01500
C1394       C  0.82731704  0.20508722  0.42864171    -0.24000
H1395       H  0.84052687  0.14036707  0.34186064     0.09500
H1396       H  0.81848357  0.16030757  0.36328041     0.13100
H1397       H  0.89336782  0.15477617  0.38028383     0.11800
H1398       H  0.88972328  0.17858059  0.40844271     0.13000
H1399       H  0.86832981  0.20033133  0.43057829     0.12000
H1400       H  0.79947582  0.17604478  0.38430698     0.09100
H1401       H  0.77936186  0.19609597  0.40833451     0.12400
H1402       H  0.83466241  0.21311583  0.44140860     0.14200
C1403       C  0.86304323  0.13990341  0.60352072    -0.01300
C1404       C  0.87366389  0.15053286  0.58770127    -0.09300
C1405       C  0.86311322  0.16300425  0.57346290    -0.18100
C1406       C  0.84127622  0.16547730  0.57436063     0.04300
C1407       C  0.83045782  0.15491674  0.59028728     0.18400
C1408       C  0.84126239  0.14260308  0.60462915    -0.19600
C1409       C  0.80878891  0.15659713  0.59184656    -0.20800
C1410       C  0.79756329  0.16857377  0.57791157    -0.19400
C1411       C  0.80771569  0.17932145  0.56213876     0.19800
C1412       C  0.82974113  0.17801127  0.56010377     0.02000
C1413       C  0.83916475  0.18931075  0.54389325    -0.14100
C1414       C  0.82718291  0.20118155  0.53026455    -0.11800
C1415       C  0.80551602  0.20223693  0.53233019     0.01500
C1416       C  0.79589269  0.19132366  0.54832106    -0.24000
H1417       H  0.89040731  0.14913045  0.58633470     0.09500
H1418       H  0.87251908  0.17042076  0.56187240     0.13100
H1419       H  0.83235212  0.13520833  0.61669476     0.11800
H1420       H  0.80041946  0.14851329  0.60391780     0.13000
H1421       H  0.78079702  0.16947648  0.57952315     0.12000
H1422       H  0.85572225  0.18926327  0.54129908     0.09100
H1423       H  0.83484385  0.20950841  0.51790567     0.12400
H1424       H  0.77909039  0.19198202  0.54979120     0.14200
C1425       C  0.81114398  0.93849349  0.26135690    -0.01300
C1426       C  0.79896630  0.92372627  0.27159328    -0.09300
C1427       C  0.80816553  0.90833540  0.28379067    -0.18100
C1428       C  0.83003465  0.90728860  0.28628097     0.04300
C1429       C  0.84234911  0.92209168  0.27549523     0.18400
C1430       C  0.83286445  0.93736776  0.26308379    -0.19600
C1431       C  0.86403665  0.92186782  0.27755746    -0.20800
C1432       C  0.87376315  0.90764134  0.29055296    -0.19400
C1433       C  0.86206550  0.89323776  0.30181055     0.19800
C1434       C  0.84009755  0.89256027  0.29955460     0.02000
C1435       C  0.82920456  0.87728098  0.31084481    -0.14100
C1436       C  0.83945998  0.86432499  0.32489905    -0.11800
C1437       C  0.86103323  0.86613538  0.32856651     0.01500
C1438       C  0.87223389  0.87982175  0.31568718    -0.24000
H1439       H  0.78215004  0.92440446  0.27048140     0.09500
H1440       H  0.79770289  0.89779776  0.29144401     0.13100
H1441       H  0.84232916  0.94877911  0.25514762     0.11800
H1442       H  0.87353549  0.93303225  0.26934205     0.13000
H1443       H  0.89055526  0.90816057  0.29209191     0.12000
H1444       H  0.81268438  0.87493887  0.30918198     0.09100
H1445       H  0.83019008  0.85270105  0.33258516     0.12400
H1446       H  0.88902306  0.88065125  0.31724591     0.14200
C1447       C  0.87105016  0.11664411  0.33131566    -0.01300
C1448       C  0.87317135  0.11758560  0.30955153    -0.09300
C1449       C  0.86234815  0.10423692  0.29631877    -0.18100
C1450       C  0.84787959  0.08973740  0.30392266     0.04300
C1451       C  0.84408463  0.08977757  0.32541054     0.18400
C1452       C  0.85551132  0.10287265  0.33860896    -0.19600
C1453       C  0.82843599  0.07711192  0.33364845    -0.20800
C1454       C  0.81646129  0.06447350  0.32093867    -0.19400
C1455       C  0.82026723  0.06361163  0.29973471     0.19800
C1456       C  0.83638866  0.07583838  0.29094124     0.02000
C1457       C  0.84053714  0.07326014  0.26966958    -0.14100
C1458       C  0.82918098  0.05907962  0.25775577    -0.11800
C1459       C  0.81291986  0.04751640  0.26641597     0.01500
C1460       C  0.80828159  0.05026445  0.28734416    -0.24000
H1461       H  0.88270549  0.12901521  0.30200967     0.09500
H1462       H  0.86503219  0.10619732  0.28003079     0.13100
H1463       H  0.85056973  0.10348724  0.35437598     0.11800
H1464       H  0.82526860  0.07713704  0.35004634     0.13000
H1465       H  0.80435936  0.05502965  0.32780919     0.12000
H1466       H  0.85294201  0.08146289  0.26201179     0.09100
H1467       H  0.83316555  0.05703493  0.24167302     0.12400
H1468       H  0.79575322  0.04131866  0.29414946     0.14200
C1469       C  0.13355218  0.83441755  0.33192105    -0.01300
C1470       C  0.11928903  0.82052646  0.34099092    -0.09300
C1471       C  0.10562854  0.80870429  0.32916028    -0.18100
C1472       C  0.10541740  0.81026904  0.30747401     0.04300
C1473       C  0.11987660  0.82401246  0.29809922     0.18400
C1474       C  0.13355139  0.83595360  0.31022477    -0.19600
C1475       C  0.12046509  0.82596222  0.27661035    -0.20800
C1476       C  0.10693091  0.81463096  0.26421855    -0.19400
C1477       C  0.09230453  0.80118987  0.27298523     0.19800
C1478       C  0.09127553  0.79884064  0.29477183     0.02000
C1479       C  0.07592441  0.78537145  0.30287783    -0.14100
C1480       C  0.06217207  0.77485513  0.28992539    -0.11800
C1481       C  0.06335028  0.77719151  0.26856254     0.01500
C1482       C  0.07849725  0.79025234  0.26010866    -0.24000
H1483       H  0.11865671  0.81893233  0.35760063     0.09500
H1484       H  0.09537715  0.79853868  0.33754077     0.13100
H1485       H  0.14386279  0.84663822  0.30246918     0.11800
H1486       H  0.13146752  0.83637132  0.26931069     0.13000
H1487       H  0.10778890  0.81654156  0.24764838     0.12000
H1488       H  0.07393674  0.78279112  0.31915048     0.09100
H1489       H  0.05043893  0.76484061  0.29661646     0.12400
H1490       H  0.07924336  0.79214463  0.24352170     0.14200
C1491       C  0.95695675  0.78026832  0.26739243    -0.01300
C1492       C  0.93702071  0.78529374  0.25991001    -0.09300
C1493       C  0.92266230  0.79604386  0.27220914    -0.18100
C1494       C  0.92827045  0.80334560  0.29199362     0.04300
C1495       C  0.94896315  0.79972668  0.29879776     0.18400
C1496       C  0.96253074  0.78735123  0.28713029    -0.19600
C1497       C  0.95617890  0.80891424  0.31698309    -0.20800
C1498       C  0.94337820  0.82207597  0.32826586    -0.19400
C1499       C  0.92253982  0.82499458  0.32258622     0.19800
C1500       C  0.91441122  0.81476778  0.30499497     0.02000
C1501       C  0.89276248  0.81598932  0.30154195    -0.14100
C1502       C  0.87987319  0.82725870  0.31486928    -0.11800
C1503       C  0.88806622  0.83894024  0.33142451     0.01500
C1504       C  0.90979518  0.83790724  0.33462070    -0.24000
H1505       H  0.93247618  0.78088097  0.24445353     0.09500
H1506       H  0.90759624  0.79932163  0.26556057     0.13100
H1507       H  0.97782620  0.78372308  0.29323710     0.11800
H1508       H  0.97205659  0.80649143  0.32212620     0.13000
H1509       H  0.94965125  0.82952096  0.34189395     0.12000
H1510       H  0.88534434  0.80767232  0.28910745     0.09100
H1511       H  0.86327454  0.82723722  0.31194386     0.12400
H1512       H  0.91727884  0.84686643  0.34649522     0.14200
C1513       C  0.73426577  0.05016211  0.19078805    -0.01300
C1514       C  0.73350173  0.04839074  0.16931829    -0.09300
C1515       C  0.72128083  0.06182070  0.15753845    -0.18100
C1516       C  0.70933481  0.07764681  0.16692923     0.04300
C1517       C  0.71089440  0.07998530  0.18868269     0.18400
C1518       C  0.72320038  0.06621502  0.20039337    -0.19600
C1519       C  0.69980823  0.09577354  0.19863080    -0.20800
C1520       C  0.68665184  0.10886356  0.18754573    -0.19400
C1521       C  0.68399021  0.10629682  0.16627245     0.19800
C1522       C  0.69553959  0.09088254  0.15561015     0.02000
C1523       C  0.69252414  0.08920168  0.13412472    -0.14100
C1524       C  0.67780560  0.10140007  0.12394461    -0.11800
C1525       C  0.66498603  0.11545781  0.13465893     0.01500
C1526       C  0.66944333  0.11875675  0.15571583    -0.24000
H1527       H  0.74207895  0.03613832  0.16165721     0.09500
H1528       H  0.72131578  0.05917761  0.14115987     0.13100
H1529       H  0.72376663  0.06760739  0.21703379     0.11800
H1530       H  0.70109145  0.09782914  0.21515585     0.13000
H1531       H  0.67805051  0.12071901  0.19577993     0.12000
H1532       H  0.70099101  0.07832897  0.12472735     0.09100
H1533       H  0.67576551  0.09915998  0.10753540     0.12400
H1534       H  0.66158287  0.13089066  0.16418094     0.14200
C1535       C  0.66189306  0.86786705  0.83288061    -0.01300
C1536       C  0.65219024  0.87911479  0.81687578    -0.09300
C1537       C  0.66344552  0.89202423  0.80379771    -0.18100
C1538       C  0.68495056  0.89518148  0.80675562     0.04300
C1539       C  0.69469993  0.88488870  0.82359391     0.18400
C1540       C  0.68334219  0.87111591  0.83613702    -0.19600
C1541       C  0.71562766  0.88885102  0.82817553    -0.20800
C1542       C  0.72703388  0.90291115  0.81647483    -0.19400
C1543       C  0.71800159  0.91286695  0.79949684     0.19800
C1544       C  0.69693819  0.90879983  0.79408619     0.02000
C1545       C  0.68880594  0.91857405  0.77624750    -0.14100
C1546       C  0.70086713  0.93237658  0.76478334    -0.11800
C1547       C  0.72131365  0.93678187  0.77064051     0.01500
C1548       C  0.72987900  0.92696614  0.78792314    -0.24000
H1549       H  0.63556143  0.87774427  0.81442442     0.09500
H1550       H  0.65467278  0.89988557  0.79196492     0.13100
H1551       H  0.69119187  0.86375215  0.84897013     0.11800
H1552       H  0.72314023  0.88129352  0.84113607     0.13000
H1553       H  0.74309005  0.90591095  0.82065479     0.12000
H1554       H  0.67326731  0.91575122  0.77065275     0.09100
H1555       H  0.69416579  0.93982601  0.75133789     0.12400
H1556       H  0.74578117  0.93043639  0.79235308     0.14200
C1557       C  0.71852869  0.77787891  0.93349076    -0.01300
C1558       C  0.71180476  0.79766035  0.93982396    -0.09300
C1559       C  0.70035915  0.81057464  0.92668695    -0.18100
C1560       C  0.69627015  0.80475266  0.90612442     0.04300
C1561       C  0.70482299  0.78576676  0.89898345     0.18400
C1562       C  0.71474722  0.77206503  0.91287062    -0.19600
C1563       C  0.70357744  0.78078336  0.87798997    -0.20800
C1564       C  0.69417489  0.79441414  0.86403743    -0.19400
C1565       C  0.68430039  0.81253255  0.87096421     0.19800
C1566       C  0.68442456  0.81736765  0.89225873     0.02000
C1567       C  0.67180575  0.83392962  0.89897192    -0.14100
C1568       C  0.65983858  0.84547832  0.88506335    -0.11800
C1569       C  0.66108911  0.84215844  0.86357852     0.01500
C1570       C  0.67370977  0.82546871  0.85686544    -0.24000
H1571       H  0.71526917  0.80319650  0.95519638     0.09500
H1572       H  0.69561651  0.82546215  0.93270912     0.13100
H1573       H  0.71965550  0.75692057  0.90748876     0.11800
H1574       H  0.71039149  0.76652309  0.87224631     0.13000
H1575       H  0.69393728  0.79036065  0.84783738     0.12000
H1576       H  0.66993288  0.83744969  0.91512299     0.09100
H1577       H  0.64940467  0.85674881  0.89166500     0.12400
H1578       H  0.67454419  0.82198815  0.84055504     0.14200
C1579       C  0.56665284  0.77156437  0.78020278    -0.01300
C1580       C  0.58226494  0.78204463  0.76937877    -0.09300
C1581       C  0.59675733  0.79438926  0.77972955    -0.18100
C1582       C  0.59591180  0.79688611  0.80138753     0.04300
C1583       C  0.57979238  0.78650289  0.81225844     0.18400
C1584       C  0.56561465  0.77374984  0.80168238    -0.19600
C1585       C  0.57767122  0.78923821  0.83355559    -0.20800
C1586       C  0.59115520  0.80220879  0.84431157    -0.19400
C1587       C  0.60728545  0.81253177  0.83409320     0.19800
C1588       C  0.61008408  0.80976193  0.81256551     0.02000
C1589       C  0.62707266  0.81987034  0.80320675    -0.14100
C1590       C  0.63955000  0.83358226  0.81430283    -0.11800
C1591       C  0.63549343  0.83816606  0.83518553     0.01500
C1592       C  0.62038826  0.82595598  0.84522459    -0.24000
H1593       H  0.58303789  0.78091227  0.75274436     0.09500
H1594       H  0.60807781  0.80220614  0.77027259     0.13100
H1595       H  0.55337493  0.76584803  0.81008483     0.11800
H1596       H  0.56530334  0.78151623  0.84191403     0.13000
H1597       H  0.58886505  0.80428056  0.86072307     0.12000
H1598       H  0.63122269  0.81743170  0.78731226     0.09100
H1599       H  0.65256419  0.84036237  0.80622092     0.12400
H1600       H  0.61800661  0.82795438  0.86164312     0.14200
C1601       C  0.38648624  0.83211273  0.83823376    -0.01300
C1602       C  0.40195970  0.82107229  0.84907845    -0.09300
C1603       C  0.41556975  0.80764739  0.83911656    -0.18100
C1604       C  0.41407670  0.80424283  0.81772195     0.04300
C1605       C  0.39713358  0.81353581  0.80702217     0.18400
C1606       C  0.38329122  0.82691142  0.81737251    -0.19600
C1607       C  0.39441525  0.80979443  0.78593855    -0.20800
C1608       C  0.40870512  0.79778523  0.77508456    -0.19400
C1609       C  0.42607552  0.78922759  0.78503814     0.19800
C1610       C  0.42886735  0.79209078  0.80657970     0.02000
C1611       C  0.44664815  0.78311086  0.81593520    -0.14100
C1612       C  0.46105690  0.77190755  0.80437632    -0.11800
C1613       C  0.45847597  0.76946241  0.78312100     0.01500
C1614       C  0.44086989  0.77807125  0.77353818    -0.24000
H1615       H  0.40428538  0.82367381  0.86538423     0.09500
H1616       H  0.42728000  0.80044020  0.84862565     0.13100
H1617       H  0.37025307  0.83335641  0.80895779     0.11800
H1618       H  0.38138829  0.81656638  0.77768478     0.13000
H1619       H  0.40634940  0.79548199  0.75870701     0.12000
H1620       H  0.45006664  0.78464462  0.83210669     0.09100
H1621       H  0.47450570  0.76527677  0.81204919     0.12400
H1622       H  0.43885868  0.77625924  0.75704477     0.14200
C1623       C  0.72383061  0.77721469  0.03883576    -0.01300
C1624       C  0.71873929  0.77013275  0.05864221    -0.09300
C1625       C  0.70894641  0.78325305  0.07283020    -0.18100
C1626       C  0.70318993  0.80374101  0.06734399     0.04300
C1627       C  0.70761729  0.81056230  0.04701179     0.18400
C1628       C  0.71858370  0.79768307  0.03337516    -0.19600
C1629       C  0.70048113  0.82994717  0.04019678    -0.20800
C1630       C  0.68823656  0.84231983  0.05291054    -0.19400
C1631       C  0.68392678  0.83618340  0.07316444     0.19800
C1632       C  0.69240350  0.81740010  0.08099809     0.02000
C1633       C  0.69024991  0.81344405  0.10226513    -0.14100
C1634       C  0.67883494  0.82687309  0.11484292    -0.11800
C1635       C  0.66745244  0.84361539  0.10647209     0.01500
C1636       C  0.67126583  0.84876741  0.08566812    -0.24000
H1637       H  0.72204448  0.75424571  0.06307096     0.09500
H1638       H  0.70512872  0.77668912  0.08765430     0.13100
H1639       H  0.72237471  0.80333977  0.01808960     0.11800
H1640       H  0.70371798  0.83522317  0.02466493     0.13000
H1641       H  0.68225548  0.85687018  0.04691977     0.12000
H1642       H  0.69778450  0.80041693  0.10964441     0.09100
H1643       H  0.67801767  0.82354469  0.13118232     0.12400
H1644       H  0.66473444  0.86282133  0.07914970     0.14200
C1645       C  0.66914565  0.87090073  0.13266770    -0.01300
C1646       C  0.68039653  0.88615609  0.12179524    -0.09300
C1647       C  0.69340058  0.90019941  0.13186383    -0.18100
C1648       C  0.69632468  0.89926342  0.15339427     0.04300
C1649       C  0.68659161  0.88273461  0.16424356     0.18400
C1650       C  0.67347463  0.86863760  0.15386503    -0.19600
C1651       C  0.68979443  0.88052671  0.18548350    -0.20800
C1652       C  0.70199225  0.89469652  0.19627603    -0.19400
C1653       C  0.71124820  0.91152024  0.18614556     0.19800
C1654       C  0.70861435  0.91403802  0.16452092     0.02000
C1655       C  0.71812777  0.93142762  0.15506574    -0.14100
C1656       C  0.72981597  0.94556846  0.16656815    -0.11800
C1657       C  0.73237492  0.94301250  0.18783650     0.01500
C1658       C  0.72302373  0.92594173  0.19754549    -0.24000
H1659       H  0.67836761  0.88784634  0.10531867     0.09500
H1660       H  0.70085377  0.91167758  0.12231675     0.13100
H1661       H  0.66668097  0.85597823  0.16249748     0.11800
H1662       H  0.68261780  0.86786312  0.19387275     0.13000
H1663       H  0.70400765  0.89260554  0.21273115     0.12000
H1664       H  0.71668633  0.93467275  0.13884220     0.09100
H1665       H  0.73689390  0.95868512  0.15881525     0.12400
H1666       H  0.72484271  0.92400235  0.21405098     0.14200
C1667       C  0.56844373  0.04915415  0.04709836    -0.01300
C1668       C  0.58399908  0.03984657  0.05910447    -0.09300
C1669       C  0.59603768  0.05164603  0.07272851    -0.18100
C1670       C  0.59323785  0.07337813  0.07440102     0.04300
C1671       C  0.57788984  0.08286947  0.06170598     0.18400
C1672       C  0.56529419  0.07068053  0.04870256    -0.19600
C1673       C  0.57569970  0.10452472  0.06158741    -0.20800
C1674       C  0.58900489  0.11697731  0.07319446    -0.19400
C1675       C  0.60414364  0.10804713  0.08600351     0.19800
C1676       C  0.60574215  0.08612384  0.08753676     0.02000
C1677       C  0.61954888  0.07790894  0.10238446    -0.14100
C1678       C  0.63241527  0.09085338  0.11405641    -0.11800
C1679       C  0.63281574  0.11251003  0.11079499     0.01500
C1680       C  0.61774674  0.12089324  0.09725719    -0.24000
H1681       H  0.58693789  0.02332537  0.05790927     0.09500
H1682       H  0.60799171  0.04348502  0.08116760     0.13100
H1683       H  0.55359912  0.07811789  0.03914424     0.11800
H1684       H  0.56407678  0.11191979  0.05192324     0.13000
H1685       H  0.58738161  0.13370434  0.07221138     0.12000
H1686       H  0.62029000  0.06150960  0.10571300     0.09100
H1687       H  0.64187737  0.08359436  0.12580083     0.12400
H1688       H  0.61680498  0.13759034  0.09532501     0.14200
C1689       C  0.38278435  0.10921466  0.10644847    -0.01300
C1690       C  0.39451126  0.11842853  0.09053176    -0.09300
C1691       C  0.40735211  0.10667007  0.07784737    -0.18100
C1692       C  0.40840546  0.08490848  0.07990092     0.04300
C1693       C  0.39445969  0.07518453  0.09380004     0.18400
C1694       C  0.38186835  0.08727391  0.10690472    -0.19600
C1695       C  0.39339632  0.05345191  0.09465382    -0.20800
C1696       C  0.40613389  0.04125851  0.08215324    -0.19400
C1697       C  0.42085143  0.05048696  0.06912724     0.19800
C1698       C  0.42254201  0.07247967  0.06831751     0.02000
C1699       C  0.43870986  0.08116620  0.05639896    -0.14100
C1700       C  0.45198092  0.06861410  0.04493027    -0.11800
C1701       C  0.44947130  0.04704104  0.04462695     0.01500
C1702       C  0.43397332  0.03797431  0.05692058    -0.24000
H1703       H  0.39474289  0.13515213  0.08874077     0.09500
H1704       H  0.41618707  0.11506621  0.06645522     0.13100
H1705       H  0.37164211  0.07932648  0.11749714     0.11800
H1706       H  0.38258157  0.04583311  0.10498590     0.13000
H1707       H  0.40477444  0.02450713  0.08300807     0.12000
H1708       H  0.44174646  0.09761991  0.05593302     0.09100
H1709       H  0.46396380  0.07597031  0.03575414     0.12400
H1710       H  0.43222088  0.02122944  0.05706801     0.14200
C1711       C  0.44908661  0.92889973  0.04049061    -0.01300
C1712       C  0.42743044  0.93120039  0.03963167    -0.09300
C1713       C  0.41447828  0.91895945  0.05182402    -0.18100
C1714       C  0.42286854  0.90409551  0.06555127     0.04300
C1715       C  0.44492197  0.90251625  0.06704064     0.18400
C1716       C  0.45777914  0.91461761  0.05429143    -0.19600
C1717       C  0.45398673  0.88886123  0.08123091    -0.20800
C1718       C  0.44161213  0.87670306  0.09397789    -0.19400
C1719       C  0.41986697  0.87759554  0.09255896     0.19800
C1720       C  0.41019040  0.89095407  0.07803357     0.02000
C1721       C  0.38828687  0.89022756  0.07633526    -0.14100
C1722       C  0.37647401  0.87780330  0.08946992    -0.11800
C1723       C  0.38580345  0.86611708  0.10537468     0.01500
C1724       C  0.40779323  0.86523195  0.10572991    -0.24000
H1725       H  0.42039492  0.94227335  0.02913660     0.09500
H1726       H  0.39799237  0.92167643  0.05032150     0.13100
H1727       H  0.47456502  0.91308137  0.05524185     0.11800
H1728       H  0.47076364  0.88769495  0.08259811     0.13000
H1729       H  0.44912135  0.86647018  0.10499207     0.12000
H1730       H  0.37979458  0.89900550  0.06494333     0.09100
H1731       H  0.35968834  0.87804621  0.08785069     0.12400
H1732       H  0.41594422  0.85500044  0.11617113     0.14200
C1733       C  0.63367445  0.87122216  0.85792859    -0.01300
C1734       C  0.64284427  0.88771544  0.86898121    -0.09300
C1735       C  0.63084011  0.90228816  0.87954371    -0.18100
C1736       C  0.60890636  0.90102509  0.87962402     0.04300
C1737       C  0.59947466  0.88526412  0.86756428     0.18400
C1738       C  0.61175613  0.87143978  0.85605377    -0.19600
C1739       C  0.57780402  0.88283380  0.86766557    -0.20800
C1740       C  0.56542139  0.89486453  0.88056092    -0.19400
C1741       C  0.57430066  0.91028624  0.89293762     0.19800
C1742       C  0.59604349  0.91428322  0.89184023     0.02000
C1743       C  0.60399950  0.93109184  0.90338307    -0.14100
C1744       C  0.59122602  0.94235662  0.91666448    -0.11800
C1745       C  0.57020794  0.93716932  0.91908069     0.01500
C1746       C  0.56167808  0.92146937  0.90674513    -0.24000
H1747       H  0.65962806  0.88887997  0.87006193     0.09500
H1748       H  0.63925804  0.91379963  0.88823136     0.13100
H1749       H  0.60380546  0.86077518  0.84596827     0.11800
H1750       H  0.57046278  0.87088321  0.85842957     0.13000
H1751       H  0.54881543  0.89195500  0.88099581     0.12000
H1752       H  0.62005530  0.93583999  0.90258343     0.09100
H1753       H  0.59809328  0.95473464  0.92567658     0.12400
H1754       H  0.54529040  0.91771408  0.90813737     0.14200
C1755       C  0.45135044  0.05159605  0.92487333    -0.01300
C1756       C  0.46010655  0.06942765  0.91613152    -0.09300
C1757       C  0.44827965  0.08245489  0.90349085    -0.18100
C1758       C  0.42710906  0.07809798  0.89930532     0.04300
C1759       C  0.41827106  0.06004836  0.90841161     0.18400
C1760       C  0.43042311  0.04698193  0.92092002    -0.19600
C1761       C  0.39735655  0.05509880  0.90495109    -0.20800
C1762       C  0.38511976  0.06738098  0.89213929    -0.19400
C1763       C  0.39352476  0.08485823  0.88240808     0.19800
C1764       C  0.41449966  0.09071656  0.88612125     0.02000
C1765       C  0.42191365  0.10887405  0.87635743    -0.14100
C1766       C  0.40955517  0.11976656  0.86230898    -0.11800
C1767       C  0.38944121  0.11283512  0.85709791     0.01500
C1768       C  0.38115488  0.09621208  0.86856361    -0.24000
H1769       H  0.47623523  0.07334719  0.91905691     0.09500
H1770       H  0.45619721  0.09575272  0.89719032     0.13100
H1771       H  0.42345837  0.03331317  0.92781670     0.11800
H1772       H  0.39047232  0.04148185  0.91200891     0.13000
H1773       H  0.36906654  0.06294017  0.88950530     0.12000
H1774       H  0.43724859  0.11502295  0.87913199     0.09100
H1775       H  0.41595369  0.13368860  0.85547608     0.12400
H1776       H  0.36516914  0.09150494  0.86598374     0.14200
C1777       C  0.45126542  0.93163099  0.92135407    -0.01300
C1778       C  0.46069345  0.91901744  0.90653882    -0.09300
C1779       C  0.44866362  0.90629268  0.89379792    -0.18100
C1780       C  0.42674643  0.90542542  0.89592483     0.04300
C1781       C  0.41737852  0.91780010  0.91148200     0.18400
C1782       C  0.42958768  0.93113462  0.92359550    -0.19600
C1783       C  0.39596687  0.91639366  0.91521535    -0.20800
C1784       C  0.38365599  0.90272237  0.90397079    -0.19400
C1785       C  0.39233573  0.89063700  0.88826154     0.19800
C1786       C  0.41387475  0.89225413  0.88364139     0.02000
C1787       C  0.42152082  0.88089531  0.86669645    -0.14100
C1788       C  0.40867277  0.86741650  0.85572449    -0.11800
C1789       C  0.38781153  0.86411463  0.86155186     0.01500
C1790       C  0.37959514  0.87687023  0.87718246    -0.24000
H1791       H  0.47746561  0.91898536  0.90482515     0.09500
H1792       H  0.45701307  0.89680477  0.88291250     0.13100
H1793       H  0.42228327  0.94049600  0.93544056     0.11800
H1794       H  0.38876117  0.92562818  0.92720157     0.13000
H1795       H  0.36721305  0.90166399  0.90752847     0.12000
H1796       H  0.43729039  0.88243070  0.86126492     0.09100
H1797       H  0.41528581  0.85968073  0.84248129     0.12400
H1798       H  0.36323648  0.87568107  0.88106193     0.14200
C1799       C  0.63769983  0.87049140  0.10817828    -0.01300
C1800       C  0.63397093  0.89157625  0.11271727    -0.09300
C1801       C  0.62010306  0.90343121  0.10104307    -0.18100
C1802       C  0.60884898  0.89459808  0.08455869     0.04300
C1803       C  0.61085775  0.87290327  0.08126386     0.18400
C1804       C  0.62500341  0.86114086  0.09306149    -0.19600
C1805       C  0.59880298  0.86311424  0.06613201    -0.20800
C1806       C  0.58495989  0.87450619  0.05403114    -0.19400
C1807       C  0.58332394  0.89607872  0.05629275     0.19800
C1808       C  0.59551298  0.90647743  0.07139720     0.02000
C1809       C  0.59443746  0.92840182  0.07214870    -0.14100
C1810       C  0.58179765  0.93948787  0.05850409    -0.11800
C1811       C  0.56942728  0.92918210  0.04401890     0.01500
C1812       C  0.57003702  0.90742704  0.04314561    -0.24000
H1813       H  0.64154455  0.89913329  0.12555969     0.09500
H1814       H  0.61819989  0.91941750  0.10557808     0.13100
H1815       H  0.62650540  0.84462545  0.09019896     0.11800
H1816       H  0.60008453  0.84652336  0.06363605     0.13000
H1817       H  0.57584196  0.86645161  0.04247801     0.12000
H1818       H  0.60374621  0.93748028  0.08261663     0.09100
H1819       H  0.58175098  0.95629589  0.05924581     0.12400
H1820       H  0.56085431  0.89938671  0.03161931     0.14200
C1821       C  0.66279820  0.11222203  0.83298242    -0.01300
C1822       C  0.65259698  0.09737798  0.82062475    -0.09300
C1823       C  0.66349334  0.08432426  0.80743552    -0.18100
C1824       C  0.68537396  0.08515664  0.80615340     0.04300
C1825       C  0.69599569  0.09932026  0.81920346     0.18400
C1826       C  0.68477680  0.11264337  0.83233413    -0.19600
C1827       C  0.71780279  0.09994478  0.81921869    -0.20800
C1828       C  0.72925809  0.08653128  0.80680049    -0.19400
C1829       C  0.71919235  0.07250691  0.79368043     0.19800
C1830       C  0.69707794  0.07202679  0.79276882     0.02000
C1831       C  0.68760992  0.05838672  0.77849858    -0.14100
C1832       C  0.69954034  0.04500261  0.76651435    -0.11800
C1833       C  0.72120341  0.04464971  0.76837174     0.01500
C1834       C  0.73104190  0.05871313  0.78165216    -0.24000
H1835       H  0.63578196  0.09616402  0.82088654     0.09500
H1836       H  0.65426101  0.07351645  0.79868441     0.13100
H1837       H  0.69346527  0.12317882  0.84200782     0.11800
H1838       H  0.72607453  0.11066891  0.82914078     0.13000
H1839       H  0.74610453  0.08713652  0.80745950     0.12000
H1840       H  0.67102566  0.05766282  0.77618555     0.09100
H1841       H  0.69178985  0.03440292  0.75606855     0.12400
H1842       H  0.74787605  0.05856773  0.78289755     0.14200
C1843       C  0.57014711  0.04954664  0.92405329    -0.01300
C1844       C  0.56084515  0.06549339  0.91260597    -0.09300
C1845       C  0.57246954  0.07716527  0.89854156    -0.18100
C1846       C  0.59400618  0.07341875  0.89568919     0.04300
C1847       C  0.60331210  0.05711283  0.90727474     0.18400
C1848       C  0.59134416  0.04527956  0.92108026    -0.19600
C1849       C  0.62461676  0.05296222  0.90533603    -0.20800
C1850       C  0.63703495  0.06499403  0.89249534    -0.19400
C1851       C  0.62845700  0.08143839  0.88120723     0.19800
C1852       C  0.60678855  0.08562051  0.88229728     0.02000
C1853       C  0.59893158  0.10193895  0.87005072    -0.14100
C1854       C  0.61218029  0.11458079  0.85853884    -0.11800
C1855       C  0.63402650  0.11182887  0.85888393     0.01500
C1856       C  0.64158623  0.09405238  0.86924981    -0.24000
H1857       H  0.54448220  0.06902897  0.91458189     0.09500
H1858       H  0.56422890  0.08927423  0.89046045     0.13100
H1859       H  0.59873101  0.03304807  0.92996997     0.11800
H1860       H  0.63181054  0.04053447  0.91409704     0.13000
H1861       H  0.65354453  0.06162149  0.89165758     0.12000
H1862       H  0.58254808  0.10540079  0.86905094     0.09100
H1863       H  0.60475124  0.12644485  0.84939719     0.12400
H1864       H  0.65812079  0.09066061  0.86881583     0.14200
C1865       C  0.45998990  0.19893589  0.76872581    -0.01300
C1866       C  0.46434956  0.17770575  0.77077613    -0.09300
C1867       C  0.45019141  0.16431200  0.78023999    -0.18100
C1868       C  0.43088644  0.17172192  0.78770962     0.04300
C1869       C  0.42618135  0.19311211  0.78478585     0.18400
C1870       C  0.44085814  0.20651748  0.77584009    -0.19600
C1871       C  0.40695307  0.20108206  0.79107698    -0.20800
C1872       C  0.39264762  0.18850634  0.80116373    -0.19400
C1873       C  0.39741383  0.16777317  0.80561753     0.19800
C1874       C  0.41635738  0.15891842  0.79853159     0.02000
C1875       C  0.42012812  0.13781511  0.80313971    -0.14100
C1876       C  0.40666813  0.12667986  0.81588165    -0.11800
C1877       C  0.38906728  0.13611119  0.82484616     0.01500
C1878       C  0.38369659  0.15614458  0.81790390    -0.24000
H1879       H  0.47897386  0.17149373  0.76520488     0.09500
H1880       H  0.45484920  0.14828585  0.78152134     0.13100
H1881       H  0.43743200  0.22295148  0.77443357     0.11800
H1882       H  0.40308932  0.21726576  0.78849707     0.13000
H1883       H  0.37808975  0.19528524  0.80624709     0.12000
H1884       H  0.43368582  0.12963440  0.79771285     0.09100
H1885       H  0.41073604  0.11081671  0.81962494     0.12400
H1886       H  0.36916749  0.16314834  0.82269875     0.14200
C1887       C  0.56660412  0.20606383  0.77768859    -0.01300
C1888       C  0.57151734  0.21205465  0.79782457    -0.09300
C1889       C  0.58562177  0.20045893  0.80954821    -0.18100
C1890       C  0.59575672  0.18291703  0.80106857     0.04300
C1891       C  0.59148986  0.17777288  0.78018682     0.18400
C1892       C  0.57652763  0.18886299  0.76902545    -0.19600
C1893       C  0.60229827  0.16170537  0.77047434    -0.20800
C1894       C  0.61731663  0.15051720  0.78111220    -0.19400
C1895       C  0.62104176  0.15439383  0.80201445     0.19800
C1896       C  0.61003900  0.17034030  0.81242194     0.02000
C1897       C  0.61337822  0.17256296  0.83380222    -0.14100
C1898       C  0.62637364  0.15887522  0.84447692    -0.11800
C1899       C  0.63707726  0.14272789  0.83429174     0.01500
C1900       C  0.63520287  0.14178254  0.81265063    -0.24000
H1901       H  0.56416175  0.22557822  0.80456282     0.09500
H1902       H  0.58864126  0.20584449  0.82498462     0.13100
H1903       H  0.57284442  0.18442710  0.75331366     0.11800
H1904       H  0.59928844  0.15792388  0.75447327     0.13000
H1905       H  0.62554735  0.13823878  0.77311500     0.12000
H1906       H  0.60534225  0.18404148  0.84288683     0.09100
H1907       H  0.62750637  0.16041828  0.86105717     0.12400
H1908       H  0.64399649  0.13079541  0.80368864     0.14200
C1909       C  0.46054253  0.78531837  0.19442570    -0.01300
C1910       C  0.45702279  0.80616833  0.19928293    -0.09300
C1911       C  0.44194879  0.81763922  0.18876318    -0.18100
C1912       C  0.42962779  0.80838214  0.17319871     0.04300
C1913       C  0.43288621  0.78699045  0.16883071     0.18400
C1914       C  0.44874305  0.77592147  0.17888281    -0.19600
C1915       C  0.42015846  0.77672639  0.15462678    -0.20800
C1916       C  0.40440751  0.78735819  0.14437804    -0.19400
C1917       C  0.40161423  0.80870958  0.14741393     0.19800
C1918       C  0.41427879  0.81955482  0.16174815     0.02000
C1919       C  0.41147984  0.84120807  0.16351331    -0.14100
C1920       C  0.39749162  0.85174103  0.15083253    -0.11800
C1921       C  0.38530909  0.84122450  0.13608045     0.01500
C1922       C  0.38673578  0.81936102  0.13555168    -0.24000
H1923       H  0.46600126  0.81357991  0.21135245     0.09500
H1924       H  0.44002458  0.83355924  0.19347665     0.13100
H1925       H  0.45154132  0.75975365  0.17511038     0.11800
H1926       H  0.42233142  0.76033640  0.15149848     0.13000
H1927       H  0.39481497  0.77895790  0.13345805     0.12000
H1928       H  0.42055767  0.85063976  0.17385705     0.09100
H1929       H  0.39675325  0.86850388  0.15198897     0.12400
H1930       H  0.37699109  0.81032190  0.12542873     0.14200
C1931       C  0.56910786  0.78763899  0.19948779    -0.01300
C1932       C  0.58004354  0.77689962  0.18424049    -0.09300
C1933       C  0.59417303  0.78721114  0.17150215    -0.18100
C1934       C  0.59765448  0.80882846  0.17348279     0.04300
C1935       C  0.58690168  0.81954736  0.18940472     0.18400
C1936       C  0.57280027  0.80890668  0.20221843    -0.19600
C1937       C  0.59003113  0.84087845  0.19218983    -0.20800
C1938       C  0.60360220  0.85183145  0.17949085    -0.19400
C1939       C  0.61428229  0.84178132  0.16356112     0.19800
C1940       C  0.61130291  0.82020138  0.16020349     0.02000
C1941       C  0.62158028  0.81110083  0.14326763    -0.14100
C1942       C  0.63478351  0.82270491  0.13068763    -0.11800
C1943       C  0.63918740  0.84374697  0.13484323     0.01500
C1944       C  0.62780099  0.85326170  0.15085037    -0.24000
H1945       H  0.57732302  0.76046097  0.18195506     0.09500
H1946       H  0.60202899  0.77782864  0.16019361     0.13100
H1947       H  0.56427942  0.81722388  0.21402949     0.11800
H1948       H  0.58189008  0.84917044  0.20426508     0.13000
H1949       H  0.60567634  0.86832374  0.18208867     0.12000
H1950       H  0.61930502  0.79512074  0.13893480     0.09100
H1951       H  0.64098724  0.81500198  0.11725984     0.12400
H1952       H  0.62963125  0.86977608  0.15350501     0.14200
C1953       C  0.21936682  0.92965425  0.69841674    -0.01300
C1954       C  0.21286198  0.93625018  0.67882108    -0.09300
C1955       C  0.20149475  0.92323607  0.66589510    -0.18100
C1956       C  0.19690261  0.90262927  0.67172557     0.04300
C1957       C  0.20460213  0.89540365  0.69096760     0.18400
C1958       C  0.21482862  0.90916354  0.70450912    -0.19600
C1959       C  0.20238695  0.87441220  0.69627696    -0.20800
C1960       C  0.19311510  0.86045421  0.68261902    -0.19400
C1961       C  0.18440451  0.86743776  0.66403296     0.19800
C1962       C  0.18535307  0.88881578  0.65888156     0.02000
C1963       C  0.17429289  0.89559652  0.64135423    -0.14100
C1964       C  0.16239691  0.88183553  0.62970178    -0.11800
C1965       C  0.16139076  0.86045764  0.63453321     0.01500
C1966       C  0.17409875  0.85335573  0.65089436    -0.24000
H1967       H  0.21665759  0.95169604  0.67337561     0.09500
H1968       H  0.19726360  0.92946485  0.65103907     0.13100
H1969       H  0.21958584  0.90378424  0.71962875     0.11800
H1970       H  0.20839477  0.86864076  0.71081088     0.13000
H1971       H  0.19210361  0.84422813  0.68694705     0.12000
H1972       H  0.17380309  0.91168050  0.63673934     0.09100
H1973       H  0.15438209  0.88823884  0.61649417     0.12400
H1974       H  0.17457799  0.83688988  0.65436748     0.14200
C1975       C  0.22163276  0.03446560  0.69563148    -0.01300
C1976       C  0.21238663  0.02748341  0.67722961    -0.09300
C1977       C  0.19989261  0.04057770  0.66528053    -0.18100
C1978       C  0.19729075  0.06164593  0.67059038     0.04300
C1979       C  0.20817169  0.06923432  0.68807956     0.18400
C1980       C  0.21916812  0.05547332  0.70101192    -0.19600
C1981       C  0.20832445  0.09057376  0.69223406    -0.20800
C1982       C  0.19844106  0.10449321  0.67895292    -0.19400
C1983       C  0.18664991  0.09725941  0.66225598     0.19800
C1984       C  0.18493185  0.07564795  0.65866595     0.02000
C1985       C  0.17023133  0.06892497  0.64398467    -0.14100
C1986       C  0.15842608  0.08321096  0.63265898    -0.11800
C1987       C  0.16214228  0.10479462  0.63401270     0.01500
C1988       C  0.17621541  0.11146610  0.64938582    -0.24000
H1989       H  0.21462713  0.01162827  0.67213334     0.09500
H1990       H  0.19319034  0.03414250  0.65141971     0.13100
H1991       H  0.22606766  0.06124457  0.71512819     0.11800
H1992       H  0.21678717  0.09659969  0.70538426     0.13000
H1993       H  0.19950152  0.12097610  0.68212439     0.12000
H1994       H  0.16673992  0.05265877  0.64188494     0.09100
H1995       H  0.14614815  0.07699489  0.62313886     0.12400
H1996       H  0.17887169  0.12788486  0.65160673     0.14200
C1997       C  0.30576180  0.03631319  0.76616763    -0.01300
C1998       C  0.32661177  0.03177563  0.77089410    -0.09300
C1999       C  0.33885628  0.04569672  0.78213983    -0.18100
C2000       C  0.33082464  0.06508983  0.78859527     0.04300
C2001       C  0.31026913  0.07035659  0.78235938     0.18400
C2002       C  0.29786046  0.05587782  0.77169246    -0.19600
C2003       C  0.30212779  0.08996886  0.78704322    -0.20800
C2004       C  0.31383219  0.10435471  0.79809737    -0.19400
C2005       C  0.33365996  0.09921062  0.80550653     0.19800
C2006       C  0.34234611  0.07941590  0.80104994     0.02000
C2007       C  0.36198138  0.07468192  0.80961654    -0.14100
C2008       C  0.37222051  0.08871797  0.82248526    -0.11800
C2009       C  0.36346936  0.10818148  0.82751146     0.01500
C2010       C  0.34466729  0.11363560  0.81767610    -0.24000
H2011       H  0.33334198  0.01706564  0.76629074     0.09500
H2012       H  0.35459256  0.04089276  0.78541915     0.13100
H2013       H  0.28183982  0.05970360  0.76803217     0.11800
H2014       H  0.28658226  0.09423540  0.78209082     0.13000
H2015       H  0.30705253  0.11939810  0.80141928     0.12000
H2016       H  0.36966868  0.06003304  0.80704287     0.09100
H2017       H  0.38725463  0.08414459  0.82849655     0.12400
H2018       H  0.33824375  0.12902502  0.81994173     0.14200
C2019       C  0.29970460  0.92894992  0.77199134    -0.01300
C2020       C  0.28966534  0.91803045  0.78768242    -0.09300
C2021       C  0.30082493  0.90443268  0.80027740    -0.18100
C2022       C  0.32245360  0.90143510  0.79742188     0.04300
C2023       C  0.33214267  0.91138011  0.78040530     0.18400
C2024       C  0.32079326  0.92530593  0.76808132    -0.19600
C2025       C  0.35312290  0.90754316  0.77600734    -0.20800
C2026       C  0.36478690  0.89421510  0.78837494    -0.19400
C2027       C  0.35594831  0.88505365  0.80586131     0.19800
C2028       C  0.33478479  0.88891557  0.81082927     0.02000
C2029       C  0.32715497  0.88104294  0.82959480    -0.14100
C2030       C  0.33956961  0.86866206  0.84217799    -0.11800
C2031       C  0.35979086  0.86260656  0.83617569     0.01500
C2032       C  0.36822666  0.87229576  0.81860274    -0.24000
H2033       H  0.27321712  0.92043454  0.79048018     0.09500
H2034       H  0.29212152  0.89638256  0.81201409     0.13100
H2035       H  0.32836155  0.93353579  0.75558340     0.11800
H2036       H  0.36053687  0.91484384  0.76288181     0.13000
H2037       H  0.38094183  0.89139901  0.78448005     0.12000
H2038       H  0.31188917  0.88485291  0.83535586     0.09100
H2039       H  0.33315977  0.86413837  0.85690142     0.12400
H2040       H  0.38441764  0.86967687  0.81471322     0.14200
C2041       C  0.13232647  0.63476110  0.13462246    -0.01300
C2042       C  0.11204821  0.62754453  0.13891334    -0.09300
C2043       C  0.09876530  0.63829095  0.15214531    -0.18100
C2044       C  0.10498522  0.65708569  0.16142355     0.04300
C2045       C  0.12552748  0.66418121  0.15765527     0.18400
C2046       C  0.13938692  0.65211252  0.14588735    -0.19600
C2047       C  0.13179232  0.68368472  0.16491607    -0.20800
C2048       C  0.11774724  0.69660215  0.17509347    -0.19400
C2049       C  0.09756225  0.68973812  0.17955253     0.19800
C2050       C  0.09132369  0.66941637  0.17373161     0.02000
C2051       C  0.07174288  0.66227770  0.18057816    -0.14100
C2052       C  0.05851545  0.67516626  0.19183919    -0.11800
C2053       C  0.06379379  0.69591312  0.19588608     0.01500
C2054       C  0.08353678  0.70302272  0.18977729    -0.24000
H2055       H  0.10624866  0.61328930  0.13226786     0.09500
H2056       H  0.08336200  0.63196266  0.15408455     0.13100
H2057       H  0.15537670  0.65717229  0.14415516     0.11800
H2058       H  0.14736813  0.68936256  0.16190278     0.13000
H2059       H  0.12279655  0.71194678  0.17975967     0.12000
H2060       H  0.06644731  0.64663093  0.17788150     0.09100
H2061       H  0.04374044  0.66899638  0.19702224     0.12400
H2062       H  0.08797546  0.71894580  0.19289859     0.14200
C2063       C  0.86135226  0.63484680  0.10432607    -0.01300
C2064       C  0.86440890  0.63391386  0.08277190    -0.09300
C2065       C  0.85252528  0.64587687  0.06917790    -0.18100
C2066       C  0.83600507  0.65833438  0.07629260     0.04300
C2067       C  0.83129185  0.65770536  0.09760225     0.18400
C2068       C  0.84436692  0.64688569  0.11137292    -0.19600
C2069       C  0.81328155  0.66751500  0.10491743    -0.20800
C2070       C  0.79982158  0.67773822  0.09138651    -0.19400
C2071       C  0.80479808  0.67968003  0.07045635     0.19800
C2072       C  0.82347215  0.67072867  0.06285134     0.02000
C2073       C  0.82917502  0.67509957  0.04231327    -0.14100
C2074       C  0.81647145  0.68727080  0.02966195    -0.11800
C2075       C  0.79711460  0.69470041  0.03655629     0.01500
C2076       C  0.79141989  0.69074646  0.05711918    -0.24000
H2077       H  0.87576863  0.62380509  0.07583933     0.09500
H2078       H  0.85590703  0.64427266  0.05297127     0.13100
H2079       H  0.84097014  0.64731938  0.12772154     0.11800
H2080       H  0.80929079  0.66680869  0.12111959     0.13000
H2081       H  0.78573489  0.68468375  0.09744057     0.12000
H2082       H  0.84378946  0.66996639  0.03590533     0.09100
H2083       H  0.82178040  0.69074513  0.01420751     0.12400
H2084       H  0.77663318  0.69642978  0.06282427     0.14200
C2085       C  0.88815116  0.63594326  0.13422038    -0.01300
C2086       C  0.90198742  0.62645994  0.14828620    -0.09300
C2087       C  0.91544241  0.63809058  0.16061877    -0.18100
C2088       C  0.91587470  0.65997851  0.15940797     0.04300
C2089       C  0.90204348  0.66972557  0.14527214     0.18400
C2090       C  0.88867076  0.65780663  0.13276659    -0.19600
C2091       C  0.90168495  0.69140689  0.14357673    -0.20800
C2092       C  0.91471042  0.70364656  0.15564211    -0.19400
C2093       C  0.92869117  0.69455140  0.16953550     0.19800
C2094       C  0.92959864  0.67255359  0.17156464     0.02000
C2095       C  0.94443401  0.66416108  0.18543590    -0.14100
C2096       C  0.95787694  0.67704724  0.19654345    -0.11800
C2097       C  0.95685359  0.69865500  0.19446903     0.01500
C2098       C  0.94208635  0.70734115  0.18111336    -0.24000
H2099       H  0.90233530  0.60969816  0.14972683     0.09500
H2100       H  0.92530135  0.62943620  0.17097310     0.13100
H2101       H  0.87895500  0.66586507  0.12175598     0.11800
H2102       H  0.89118882  0.69899168  0.13285162     0.13000
H2103       H  0.91398587  0.72037548  0.15393225     0.12000
H2104       H  0.94631527  0.64770184  0.18777406     0.09100
H2105       H  0.96938070  0.67010453  0.20665864     0.12400
H2106       H  0.94150326  0.72407285  0.17928579     0.14200
C2107       C  0.86134893  0.36182728  0.82901372    -0.01300
C2108       C  0.84359927  0.35425810  0.81866573    -0.09300
C2109       C  0.83163658  0.36715273  0.80594591    -0.18100
C2110       C  0.83813649  0.38757246  0.80144690     0.04300
C2111       C  0.85790233  0.39393414  0.80885222     0.18400
C2112       C  0.86893941  0.38145599  0.82290588    -0.19600
C2113       C  0.86653512  0.41270338  0.80211683    -0.20800
C2114       C  0.85563122  0.42550465  0.78858207    -0.19400
C2115       C  0.83525488  0.42057513  0.78269465     0.19800
C2116       C  0.82599296  0.40177396  0.78951135     0.02000
C2117       C  0.80466497  0.39858532  0.78516637    -0.14100
C2118       C  0.79299906  0.41366969  0.77471310    -0.11800
C2119       C  0.80243104  0.43182608  0.76722880     0.01500
C2120       C  0.82377186  0.43479889  0.77082390    -0.24000
H2121       H  0.83838881  0.33847880  0.82122963     0.09500
H2122       H  0.81770527  0.36062191  0.79926747     0.13100
H2123       H  0.88371256  0.38700836  0.82873784     0.11800
H2124       H  0.88187764  0.41744125  0.80722663     0.13000
H2125       H  0.86279493  0.43985279  0.78350953     0.12000
H2126       H  0.79640291  0.38513166  0.79076952     0.09100
H2127       H  0.77644083  0.41125930  0.77268164     0.12400
H2128       H  0.83117059  0.44886448  0.76528493     0.14200
C2129       C  0.13452588  0.63738528  0.83309684    -0.01300
C2130       C  0.12163198  0.62758024  0.81844181    -0.09300
C2131       C  0.10693387  0.63860694  0.80694355    -0.18100
C2132       C  0.10432316  0.66021536  0.80949304     0.04300
C2133       C  0.11751999  0.67041168  0.82386983     0.18400
C2134       C  0.13212605  0.65904097  0.83564962    -0.19600
C2135       C  0.11598110  0.69195708  0.82648858    -0.20800
C2136       C  0.10193879  0.70363137  0.81486202    -0.19400
C2137       C  0.08863038  0.69404214  0.80065777     0.19800
C2138       C  0.08926122  0.67209955  0.79814480     0.02000
C2139       C  0.07467806  0.66303182  0.78447535    -0.14100
C2140       C  0.06068676  0.67528350  0.77324173    -0.11800
C2141       C  0.06076566  0.69692050  0.77507248     0.01500
C2142       C  0.07463380  0.70623792  0.78897244    -0.24000
H2143       H  0.12275771  0.61095572  0.81613250     0.09500
H2144       H  0.09790892  0.62973088  0.79607845     0.13100
H2145       H  0.14110636  0.66723081  0.84714153     0.11800
H2146       H  0.12592993  0.69990727  0.83742650     0.13000
H2147       H  0.10142401  0.72030173  0.81707181     0.12000
H2148       H  0.07354235  0.64649196  0.78227124     0.09100
H2149       H  0.04973281  0.66781850  0.76293423     0.12400
H2150       H  0.07437789  0.72297157  0.79077381     0.14200
C2151       C  0.13815841  0.36877551  0.10605262    -0.01300
C2152       C  0.11632161  0.36739249  0.10823229    -0.09300
C2153       C  0.10293186  0.38013534  0.09709143    -0.18100
C2154       C  0.11067778  0.39571281  0.08399810     0.04300
C2155       C  0.13241954  0.39946460  0.08414967     0.18400
C2156       C  0.14585828  0.38610803  0.09505946    -0.19600
C2157       C  0.14056164  0.41631287  0.07314329    -0.20800
C2158       C  0.12755669  0.42899636  0.06138592    -0.19400
C2159       C  0.10624849  0.42465017  0.05976728     0.19800
C2160       C  0.09754330  0.40782339  0.07097893     0.02000
C2161       C  0.07624999  0.40318893  0.06796736    -0.14100
C2162       C  0.06413178  0.41475571  0.05433642    -0.11800
C2163       C  0.07269698  0.43140253  0.04341679     0.01500
C2164       C  0.09369440  0.43653635  0.04646357    -0.24000
H2165       H  0.10899398  0.35669297  0.11870589     0.09500
H2166       H  0.08650063  0.37775211  0.09946985     0.13100
H2167       H  0.16251535  0.38873496  0.09445617     0.11800
H2168       H  0.15709557  0.41960934  0.07350873     0.13000
H2169       H  0.13432526  0.44184896  0.05294712     0.12000
H2170       H  0.06870558  0.39018046  0.07526417     0.09100
H2171       H  0.04800920  0.41038753  0.05208052     0.12400
H2172       H  0.10050756  0.44923708  0.03782238     0.14200
C2173       C  0.13464365  0.60834625  0.10514366    -0.01300
C2174       C  0.13958907  0.58720046  0.10232822    -0.09300
C2175       C  0.12777675  0.57456290  0.08933702    -0.18100
C2176       C  0.11068675  0.58259895  0.07815652     0.04300
C2177       C  0.10656829  0.60420174  0.07976415     0.18400
C2178       C  0.11858118  0.61674436  0.09286854    -0.19600
C2179       C  0.09037903  0.61319170  0.06837268    -0.20800
C2180       C  0.07788972  0.60108737  0.05565917    -0.19400
C2181       C  0.08119962  0.57966143  0.05409711     0.19800
C2182       C  0.09769076  0.57007503  0.06527089     0.02000
C2183       C  0.10030524  0.54835794  0.06316036    -0.14100
C2184       C  0.08740651  0.53680164  0.05017497    -0.11800
C2185       C  0.07130181  0.54635092  0.03912117     0.01500
C2186       C  0.06814634  0.56776793  0.04131801    -0.24000
H2187       H  0.15290956  0.58018984  0.10976063     0.09500
H2188       H  0.13260829  0.55858063  0.08820589     0.13100
H2189       H  0.11515575  0.63320256  0.09394300     0.11800
H2190       H  0.08727276  0.62970635  0.06938734     0.13000
H2191       H  0.06545228  0.60852778  0.04708562     0.12000
H2192       H  0.11215709  0.53981833  0.07132909     0.09100
H2193       H  0.09004482  0.52024188  0.04880122     0.12400
H2194       H  0.05578182  0.57529840  0.03270235     0.14200
C2195       C  0.95532207  0.54391129  0.04661300    -0.01300
C2196       C  0.95986485  0.56507984  0.04835387    -0.09300
C2197       C  0.94841177  0.57782655  0.06142131    -0.18100
C2198       C  0.93199521  0.56974097  0.07344596     0.04300
C2199       C  0.92819245  0.54799422  0.07254417     0.18400
C2200       C  0.93969295  0.53533576  0.05902327    -0.19600
C2201       C  0.91269986  0.53913548  0.08487133    -0.20800
C2202       C  0.90048590  0.55151346  0.09761381    -0.19400
C2203       C  0.90310402  0.57312057  0.09795259     0.19800
C2204       C  0.91898995  0.58251049  0.08599627     0.02000
C2205       C  0.92085352  0.60433496  0.08674960    -0.14100
C2206       C  0.90684309  0.61634926  0.09794898    -0.11800
C2207       C  0.89022949  0.60733926  0.10891702     0.01500
C2208       C  0.88952758  0.58540101  0.10979018    -0.24000
H2209       H  0.97197318  0.57205756  0.03905015     0.09500
H2210       H  0.95273638  0.59397284  0.06158786     0.13100
H2211       H  0.93629652  0.51887961  0.05796138     0.11800
H2212       H  0.90986489  0.52255048  0.08450166     0.13000
H2213       H  0.88846805  0.54418941  0.10678996     0.12000
H2214       H  0.93259643  0.61274489  0.07838292     0.09100
H2215       H  0.90855493  0.63307842  0.09748648     0.12400
H2216       H  0.87836758  0.57747490  0.11937105     0.14200
C2217       C  0.88788028  0.36027025  0.85882112    -0.01300
C2218       C  0.90843732  0.35405552  0.86338126    -0.09300
C2219       C  0.92108548  0.36563147  0.87659251    -0.18100
C2220       C  0.91364230  0.38387050  0.88616372     0.04300
C2221       C  0.89260396  0.38960381  0.88248187     0.18400
C2222       C  0.87994688  0.37761670  0.86943515    -0.19600
C2223       C  0.88431447  0.40742743  0.89167192    -0.20800
C2224       C  0.89658361  0.41993949  0.90418980    -0.19400
C2225       C  0.91739848  0.41482477  0.90804959     0.19800
C2226       C  0.92622383  0.39659730  0.89928146     0.02000
C2227       C  0.94724209  0.39199944  0.90401887    -0.14100
C2228       C  0.95888621  0.40491405  0.91692104    -0.11800
C2229       C  0.95011730  0.42289407  0.92541637     0.01500
C2230       C  0.92938416  0.42780163  0.92079598    -0.24000
H2231       H  0.91490883  0.33994591  0.85703412     0.09500
H2232       H  0.93663954  0.35984241  0.87899833     0.13100
H2233       H  0.86386123  0.38212833  0.86704402     0.11800
H2234       H  0.86826055  0.41186350  0.88897403     0.13000
H2235       H  0.88972139  0.43373340  0.91091751     0.12000
H2236       H  0.95511808  0.37848958  0.89811026     0.09100
H2237       H  0.97486044  0.40071886  0.92032406     0.12400
H2238       H  0.92240689  0.44159867  0.92741622     0.14200
C2239       C  0.13263866  0.60912650  0.85830411    -0.01300
C2240       C  0.11673101  0.61843766  0.87006699    -0.09300
C2241       C  0.10217036  0.60665965  0.88081498    -0.18100
C2242       C  0.10263314  0.58476887  0.88019468     0.04300
C2243       C  0.11786751  0.57517669  0.86754011     0.18400
C2244       C  0.13213484  0.58728574  0.85630846    -0.19600
C2245       C  0.11904936  0.55347839  0.86645954    -0.20800
C2246       C  0.10609617  0.54111320  0.87847146    -0.19400
C2247       C  0.09128737  0.55011450  0.89150082     0.19800
C2248       C  0.08883742  0.57206332  0.89200654     0.02000
C2249       C  0.07293014  0.58032032  0.90462686    -0.14100
C2250       C  0.06078252  0.56742288  0.91700991    -0.11800
C2251       C  0.06415551  0.54594562  0.91743840     0.01500
C2252       C  0.07917299  0.53732694  0.90435339    -0.24000
H2253       H  0.11594933  0.63518917  0.87139727     0.09500
H2254       H  0.09105055  0.61522891  0.88984265     0.13100
H2255       H  0.14267865  0.57934194  0.84606771     0.11800
H2256       H  0.13050733  0.54600380  0.85671717     0.13000
H2257       H  0.10783897  0.52438790  0.87773847     0.12000
H2258       H  0.06958323  0.59669007  0.90545286     0.09100
H2259       H  0.04915382  0.57443658  0.92687448     0.12400
H2260       H  0.08161354  0.52066168  0.90437058     0.14200
C2261       C  0.13265718  0.36170956  0.85647469    -0.01300
C2262       C  0.11130606  0.35694457  0.85864781    -0.09300
C2263       C  0.09813980  0.36891094  0.87102434    -0.18100
C2264       C  0.10544578  0.38677598  0.88129011     0.04300
C2265       C  0.12644276  0.39263734  0.87798925     0.18400
C2266       C  0.13970137  0.38011255  0.86612733    -0.19600
C2267       C  0.13419405  0.41098539  0.88661033    -0.20800
C2268       C  0.12153959  0.42356447  0.89865888    -0.19400
C2269       C  0.10099633  0.41780226  0.90290090     0.19800
C2270       C  0.09267359  0.39918560  0.89450264     0.02000
C2271       C  0.07212822  0.39363001  0.90009095    -0.14100
C2272       C  0.06036488  0.40614905  0.91329475    -0.11800
C2273       C  0.06854039  0.42467666  0.92116997     0.01500
C2274       C  0.08885036  0.43042713  0.91580264    -0.24000
H2275       H  0.10420988  0.34394404  0.85101985     0.09500
H2276       H  0.08213599  0.36398465  0.87193112     0.13100
H2277       H  0.15588730  0.38460191  0.86467452     0.11800
H2278       H  0.15015313  0.41570321  0.88393813     0.13000
H2279       H  0.12799591  0.43772295  0.90501739     0.12000
H2280       H  0.06489931  0.37947571  0.89488752     0.09100
H2281       H  0.04480161  0.40123216  0.91742806     0.12400
H2282       H  0.09545422  0.44456251  0.92207990     0.14200
C2283       C  0.95415107  0.42434164  0.04475978    -0.01300
C2284       C  0.94411185  0.40718300  0.03616580    -0.09300
C2285       C  0.93090649  0.39486060  0.04805416    -0.18100
C2286       C  0.92757691  0.39924074  0.06914677     0.04300
C2287       C  0.93856504  0.41626589  0.07795895     0.18400
C2288       C  0.95143396  0.42884715  0.06564101    -0.19600
C2289       C  0.93659732  0.42063009  0.09897886    -0.20800
C2290       C  0.92388169  0.40851225  0.11144921    -0.19400
C2291       C  0.91236394  0.39209525  0.10310221     0.19800
C2292       C  0.91381667  0.38735505  0.08181191     0.02000
C2293       C  0.90129053  0.37106003  0.07412698    -0.14100
C2294       C  0.88779786  0.36006212  0.08698857    -0.11800
C2295       C  0.88605620  0.36491583  0.10807467     0.01500
C2296       C  0.89914984  0.38059153  0.11595249    -0.24000
H2297       H  0.94617057  0.40354964  0.01999638     0.09500
H2298       H  0.92364469  0.38197717  0.04030255     0.13100
H2299       H  0.95939566  0.44209778  0.07227723     0.11800
H2300       H  0.94503056  0.43344847  0.10584739     0.13000
H2301       H  0.92277499  0.41223730  0.12769381     0.12000
H2302       H  0.90138026  0.36653190  0.05815555     0.09100
H2303       H  0.87903729  0.34750029  0.08018610     0.12400
H2304       H  0.89847253  0.38428897  0.13223286     0.14200
C2305       C  0.85631000  0.64080909  0.86259062    -0.01300
C2306       C  0.83527997  0.64457544  0.85748020    -0.09300
C2307       C  0.82262226  0.65686084  0.86983776    -0.18100
C2308       C  0.83043953  0.66610377  0.88791573     0.04300
C2309       C  0.85211703  0.66433114  0.89191121     0.18400
C2310       C  0.86490919  0.65269129  0.87869909    -0.19600
C2311       C  0.86076141  0.67356783  0.90944824    -0.20800
C2312       C  0.84817117  0.68393977  0.92348997    -0.19400
C2313       C  0.82668167  0.68547232  0.92021662     0.19800
C2314       C  0.81750360  0.67683978  0.90222511     0.02000
C2315       C  0.79569332  0.67884948  0.89964019    -0.14100
C2316       C  0.78356061  0.68888901  0.91437327    -0.11800
C2317       C  0.79271655  0.69716100  0.93206731     0.01500
C2318       C  0.81424893  0.69545563  0.93492939    -0.24000
H2319       H  0.82830589  0.63828579  0.84368181     0.09500
H2320       H  0.80671404  0.65860125  0.86486843     0.13100
H2321       H  0.88146078  0.65158931  0.88183233     0.11800
H2322       H  0.87729166  0.67232897  0.91258529     0.13000
H2323       H  0.85525537  0.69059166  0.93713445     0.12000
H2324       H  0.78747206  0.67269361  0.88653646     0.09100
H2325       H  0.76690319  0.69012811  0.91202925     0.12400
H2326       H  0.82129102  0.70200661  0.94866050     0.14200
C2327       C  0.88538886  0.64045865  0.83775485    -0.01300
C2328       C  0.87720505  0.65706180  0.82595039    -0.09300
C2329       C  0.89009652  0.67019164  0.81443511    -0.18100
C2330       C  0.91161917  0.66622438  0.81290498     0.04300
C2331       C  0.91973378  0.64893239  0.82383201     0.18400
C2332       C  0.90713585  0.63762217  0.83739062    -0.19600
C2333       C  0.94025084  0.64243642  0.82056855    -0.20800
C2334       C  0.95265517  0.65243587  0.80616947    -0.19400
C2335       C  0.94554547  0.67038706  0.79626593     0.19800
C2336       C  0.92532799  0.67823106  0.80035163     0.02000
C2337       C  0.92008999  0.69797816  0.79230251    -0.14100
C2338       C  0.93453940  0.70937858  0.78070867    -0.11800
C2339       C  0.95396685  0.70079634  0.77547201     0.01500
C2340       C  0.95890021  0.68091339  0.78285578    -0.24000
H2341       H  0.86060175  0.65988483  0.82555261     0.09500
H2342       H  0.88271892  0.68253086  0.80581432     0.13100
H2343       H  0.91465433  0.62612604  0.84688651     0.11800
H2344       H  0.94644335  0.62896606  0.82852436     0.13000
H2345       H  0.96821235  0.64656619  0.80337232     0.12000
H2346       H  0.90539859  0.70534881  0.79575630     0.09100
H2347       H  0.93051886  0.72497656  0.77587233     0.12400
H2348       H  0.97377438  0.67400089  0.77894230     0.14200
C2349       C  0.85707049  0.61253594  0.83486076    -0.01300
C2350       C  0.86171662  0.61053835  0.81374013    -0.09300
C2351       C  0.85080316  0.59665654  0.80124521    -0.18100
C2352       C  0.83443640  0.58444535  0.80923421     0.04300
C2353       C  0.82900217  0.58716284  0.83022285     0.18400
C2354       C  0.84090342  0.60016176  0.84290678    -0.19600
C2355       C  0.81172759  0.57686497  0.83845912    -0.20800
C2356       C  0.79986124  0.56363201  0.82627725    -0.19400
C2357       C  0.80565068  0.55955142  0.80590474     0.19800
C2358       C  0.82328855  0.56960622  0.79719642     0.02000
C2359       C  0.82941237  0.56384806  0.77708022    -0.14100
C2360       C  0.81838225  0.54886338  0.76607365    -0.11800
C2361       C  0.80066682  0.53956384  0.77448010     0.01500
C2362       C  0.79420267  0.54510917  0.79430581    -0.24000
H2363       H  0.87436145  0.61904651  0.80674709     0.09500
H2364       H  0.85537389  0.59602642  0.78528650     0.13100
H2365       H  0.83730958  0.60108168  0.85920320     0.11800
H2366       H  0.80724732  0.57921585  0.85438124     0.13000
H2367       H  0.78645335  0.55603988  0.83302879     0.12000
H2368       H  0.84300350  0.57018689  0.76968232     0.09100
H2369       H  0.82357280  0.54459746  0.75077592     0.12400
H2370       H  0.78050614  0.53779466  0.80081524     0.14200
C2371       C  0.88199275  0.60954106  0.86338804    -0.01300
C2372       C  0.89452493  0.59437760  0.85374015    -0.09300
C2373       C  0.90654146  0.58032789  0.86506340    -0.18100
C2374       C  0.90631170  0.58042633  0.88679704     0.04300
C2375       C  0.89243639  0.59440931  0.89666289     0.18400
C2376       C  0.87992753  0.60801847  0.88500944    -0.19600
C2377       C  0.89136818  0.59506071  0.91820333    -0.20800
C2378       C  0.90424481  0.58255778  0.93018273    -0.19400
C2379       C  0.91824318  0.56877066  0.92094897     0.19800
C2380       C  0.91932123  0.56724107  0.89910638     0.02000
C2381       C  0.93355185  0.55274878  0.89062895    -0.14100
C2382       C  0.94630389  0.54057605  0.90332936    -0.11800
C2383       C  0.94526679  0.54246990  0.92472772     0.01500
C2384       C  0.93123412  0.55651285  0.93347302    -0.24000
H2385       H  0.89573713  0.59398509  0.83710514     0.09500
H2386       H  0.91615037  0.56985174  0.85630780     0.13100
H2387       H  0.86869362  0.61729678  0.89320258     0.11800
H2388       H  0.88080067  0.60565740  0.92586975     0.13000
H2389       H  0.90328588  0.58372867  0.94681351     0.12000
H2390       H  0.93525556  0.55050490  0.87427330     0.09100
H2391       H  0.95711826  0.52971903  0.89641159     0.12400
H2392       H  0.93051512  0.55793307  0.95011196     0.14200
C2393       C  0.16482046  0.61107208  0.83427641    -0.01300
C2394       C  0.16835774  0.61502908  0.81320578    -0.09300
C2395       C  0.18238172  0.60318194  0.80179157    -0.18100
C2396       C  0.19363689  0.58672451  0.81090545     0.04300
C2397       C  0.19154535  0.58375017  0.83248422     0.18400
C2398       C  0.17788578  0.59633505  0.84397061    -0.19600
C2399       C  0.20256826  0.56778476  0.84234226    -0.20800
C2400       C  0.21489733  0.55412327  0.83105186    -0.19400
C2401       C  0.21667554  0.55620504  0.80964813     0.19800
C2402       C  0.20646198  0.57284415  0.79930960     0.02000
C2403       C  0.20891790  0.57439493  0.77769257    -0.14100
C2404       C  0.22015184  0.55952461  0.76674525    -0.11800
C2405       C  0.22947430  0.54275926  0.77688861     0.01500
C2406       C  0.22811972  0.54141923  0.79840743    -0.24000
H2407       H  0.16046874  0.62747723  0.80520449     0.09500
H2408       H  0.18380980  0.60718416  0.78574295     0.13100
H2409       H  0.17647024  0.59387390  0.86044182     0.11800
H2410       H  0.20118112  0.56548076  0.85882751     0.13000
H2411       H  0.22276668  0.54159057  0.83906922     0.12000
H2412       H  0.20196727  0.58662604  0.76868127     0.09100
H2413       H  0.22114132  0.56081433  0.75012717     0.12400
H2414       H  0.23547926  0.52848012  0.80628059     0.14200
C2415       C  0.16214908  0.36347374  0.83130199    -0.01300
C2416       C  0.18404127  0.36411833  0.83302004    -0.09300
C2417       C  0.19584506  0.37831415  0.82170132    -0.18100
C2418       C  0.18634026  0.39232450  0.80781806     0.04300
C2419       C  0.16434159  0.39180204  0.80602511     0.18400
C2420       C  0.15258312  0.37836110  0.81840273    -0.19600
C2421       C  0.15418702  0.40430984  0.79148964    -0.20800
C2422       C  0.16551042  0.41708202  0.77837046    -0.19400
C2423       C  0.18716531  0.41845718  0.78019240     0.19800
C2424       C  0.19785631  0.40658133  0.79538980     0.02000
C2425       C  0.21951948  0.40977363  0.79768633    -0.14100
C2426       C  0.23004189  0.42410982  0.78536959    -0.11800
C2427       C  0.21951011  0.43526585  0.77005510     0.01500
C2428       C  0.19815412  0.43204231  0.76723090    -0.24000
H2429       H  0.19244718  0.35378199  0.84316787     0.09500
H2430       H  0.21248236  0.37750222  0.82370564     0.13100
H2431       H  0.13574112  0.37862090  0.81720878     0.11800
H2432       H  0.13739674  0.40382999  0.78990847     0.13000
H2433       H  0.15723063  0.42625555  0.76698673     0.12000
H2434       H  0.22861924  0.40194265  0.80930138     0.09100
H2435       H  0.24652422  0.42663577  0.78787013     0.12400
H2436       H  0.18998118  0.44079594  0.75543605     0.14200
C2437       C  0.79042346  0.54562736  0.19214956    -0.01300
C2438       C  0.78954326  0.54421709  0.17066326    -0.09300
C2439       C  0.80148394  0.55735541  0.15830804    -0.18100
C2440       C  0.81492340  0.57227481  0.16718583     0.04300
C2441       C  0.81511894  0.57408392  0.18905288     0.18400
C2442       C  0.80287641  0.56086454  0.20126894    -0.19600
C2443       C  0.82797441  0.58868006  0.19864159    -0.20800
C2444       C  0.84110399  0.60117823  0.18704210    -0.19400
C2445       C  0.84182319  0.59930136  0.16556361     0.19800
C2446       C  0.82856234  0.58506682  0.15526637     0.02000
C2447       C  0.82976285  0.58412875  0.13354951    -0.14100
C2448       C  0.84416087  0.59612678  0.12269922    -0.11800
C2449       C  0.85830932  0.60930551  0.13291458     0.01500
C2450       C  0.85603414  0.61145134  0.15443901    -0.24000
H2451       H  0.77991014  0.53249417  0.16343334     0.09500
H2452       H  0.80018629  0.55512436  0.14191131     0.13100
H2453       H  0.80360323  0.56186272  0.21793604     0.11800
H2454       H  0.82811719  0.59022365  0.21526958     0.13000
H2455       H  0.85109493  0.61211621  0.19499002     0.12000
H2456       H  0.81994621  0.57412657  0.12447275     0.09100
H2457       H  0.84467829  0.59471650  0.10607396     0.12400
H2458       H  0.86518676  0.62258545  0.16293919     0.14200
C2459       C  0.79229823  0.43858145  0.19078852    -0.01300
C2460       C  0.79744099  0.44328751  0.17030963    -0.09300
C2461       C  0.80957685  0.42979051  0.15857063    -0.18100
C2462       C  0.81634538  0.41055315  0.16666058     0.04300
C2463       C  0.80947525  0.40487052  0.18665920     0.18400
C2464       C  0.79830390  0.41915983  0.19880219    -0.19600
C2465       C  0.81378407  0.38495541  0.19430410    -0.20800
C2466       C  0.82486835  0.37065349  0.18247649    -0.19400
C2467       C  0.83315587  0.37640205  0.16334410     0.19800
C2468       C  0.82952092  0.39668043  0.15553183     0.02000
C2469       C  0.83974820  0.40249544  0.13724299    -0.14100
C2470       C  0.85328055  0.38891425  0.12730357    -0.11800
C2471       C  0.85706003  0.36866838  0.13484290     0.01500
C2472       C  0.84559356  0.36225883  0.15226007    -0.24000
H2473       H  0.79232617  0.45775655  0.16342466     0.09500
H2474       H  0.81296183  0.43458207  0.14300947     0.13100
H2475       H  0.79426540  0.41514635  0.21451743     0.11800
H2476       H  0.80827857  0.38030796  0.20939321     0.13000
H2477       H  0.82768109  0.35527706  0.18869694     0.12000
H2478       H  0.83816906  0.41776485  0.13058788     0.09100
H2479       H  0.86028695  0.39438661  0.11318039     0.12400
H2480       H  0.84732021  0.34647798  0.15784767     0.14200
C2481       C  0.06505453  0.19063409  0.69775575    -0.01300
C2482       C  0.05816330  0.17800182  0.68137142    -0.09300
C2483       C  0.07178440  0.16486584  0.67088270    -0.18100
C2484       C  0.09333557  0.16590494  0.67443881     0.04300
C2485       C  0.10085068  0.18083052  0.68855186     0.18400
C2486       C  0.08676669  0.19144285  0.70145504    -0.19600
C2487       C  0.12222925  0.18537491  0.68903272    -0.20800
C2488       C  0.13582211  0.17593879  0.67500202    -0.19400
C2489       C  0.12874068  0.15997835  0.66205222     0.19800
C2490       C  0.10773104  0.15360821  0.66324526     0.02000
C2491       C  0.10214128  0.13464967  0.65408662    -0.14100
C2492       C  0.11657107  0.12348157  0.64249302    -0.11800
C2493       C  0.13581154  0.13236142  0.63686063     0.01500
C2494       C  0.14227099  0.15014293  0.64801437    -0.24000
H2495       H  0.04202803  0.17801954  0.67660613     0.09500
H2496       H  0.06540375  0.15506537  0.65891826     0.13100
H2497       H  0.09292773  0.20060126  0.71401004     0.11800
H2498       H  0.12821985  0.19711135  0.69941138     0.13000
H2499       H  0.15200936  0.18063538  0.67475668     0.12000
H2500       H  0.08696306  0.12784747  0.65657058     0.09100
H2501       H  0.11203682  0.10839526  0.63668793     0.12400
H2502       H  0.15781092  0.15627624  0.64596524     0.14200
C2503       C  0.88776906  0.13819069  0.63470258    -0.01300
C2504       C  0.89697795  0.12777610  0.65162079    -0.09300
C2505       C  0.90953251  0.13801592  0.66580765    -0.18100
C2506       C  0.91421806  0.15922746  0.66344946     0.04300
C2507       C  0.90525185  0.16996284  0.64649109     0.18400
C2508       C  0.89149864  0.15974451  0.63298185    -0.19600
C2509       C  0.91078107  0.19064076  0.64259678    -0.20800
C2510       C  0.92578365  0.20048044  0.65460868    -0.19400
C2511       C  0.93475499  0.19027136  0.67149729     0.19800
C2512       C  0.92831055  0.16986349  0.67676190     0.02000
C2513       C  0.93624479  0.16099691  0.69513844    -0.14100
C2514       C  0.95084416  0.17154247  0.70714540    -0.11800
C2515       C  0.95837720  0.19090727  0.70096048     0.01500
C2516       C  0.95008638  0.20033080  0.68325785    -0.24000
H2517       H  0.89492340  0.11118076  0.65347031     0.09500
H2518       H  0.91629479  0.12858653  0.67781081     0.13100
H2519       H  0.88460672  0.16874158  0.62071715     0.11800
H2520       H  0.90408955  0.19898849  0.62966928     0.13000
H2521       H  0.93032192  0.21620996  0.65072803     0.12000
H2522       H  0.93106963  0.14616849  0.70088674     0.09100
H2523       H  0.95629753  0.16454335  0.72134702     0.12400
H2524       H  0.95540820  0.21568969  0.67886629     0.14200
C2525       C  0.95827507  0.27069741  0.77402735    -0.01300
C2526       C  0.94251403  0.26078871  0.78522189    -0.09300
C2527       C  0.92739784  0.27234805  0.79567180    -0.18100
C2528       C  0.92771594  0.29432842  0.79537425     0.04300
C2529       C  0.94393584  0.30422876  0.78414894     0.18400
C2530       C  0.95881025  0.29241424  0.77349601    -0.19600
C2531       C  0.94539604  0.32589193  0.78380594    -0.20800
C2532       C  0.93144554  0.33799619  0.79486881    -0.19400
C2533       C  0.91542639  0.32875816  0.80621475     0.19800
C2534       C  0.91291611  0.30687198  0.80619048     0.02000
C2535       C  0.89563810  0.29861767  0.81688146    -0.14100
C2536       C  0.88229821  0.31144854  0.82823190    -0.11800
C2537       C  0.88613752  0.33290762  0.83014301     0.01500
C2538       C  0.90215278  0.34137293  0.81791399    -0.24000
H2539       H  0.94195416  0.24398871  0.78590136     0.09500
H2540       H  0.91590368  0.26367315  0.80415068     0.13100
H2541       H  0.97099705  0.30010794  0.76482801     0.11800
H2542       H  0.95767200  0.33352761  0.77523523     0.13000
H2543       H  0.93328757  0.35472519  0.79465249     0.12000
H2544       H  0.89189632  0.28230712  0.81656516     0.09100
H2545       H  0.86898211  0.30428439  0.83545515     0.12400
H2546       H  0.90493374  0.35794889  0.81825546     0.14200
C2547       C  0.06702295  0.27197901  0.76877979    -0.01300
C2548       C  0.07640971  0.28939159  0.75984298    -0.09300
C2549       C  0.09166406  0.30054397  0.77050561    -0.18100
C2550       C  0.09730105  0.29509265  0.79090999     0.04300
C2551       C  0.08729517  0.27773205  0.80005755     0.18400
C2552       C  0.07295995  0.26593015  0.78869307    -0.19600
C2553       C  0.09102378  0.27277473  0.82075148    -0.20800
C2554       C  0.10372397  0.28533511  0.83284727    -0.19400
C2555       C  0.11382178  0.30253086  0.82426577     0.19800
C2556       C  0.11162836  0.30691675  0.80295403     0.02000
C2557       C  0.12403418  0.32279988  0.79459345    -0.14100
C2558       C  0.13664059  0.33504461  0.80717504    -0.11800
C2559       C  0.13647545  0.33297834  0.82889875     0.01500
C2560       C  0.12584352  0.31556680  0.83693722    -0.24000
H2561       H  0.07167884  0.29456938  0.74465328     0.09500
H2562       H  0.09798707  0.31399355  0.76283567     0.13100
H2563       H  0.06552002  0.25257339  0.79571417     0.11800
H2564       H  0.08339916  0.25958372  0.82784980     0.13000
H2565       H  0.10562513  0.28159660  0.84902658     0.12000
H2566       H  0.12471295  0.32573546  0.77823465     0.09100
H2567       H  0.14638107  0.34603995  0.79928005     0.12400
H2568       H  0.12648061  0.31251533  0.85336029     0.14200
C2569       C  0.71637366  0.20635205  0.03795040    -0.01300
C2570       C  0.71103448  0.21412051  0.05747049    -0.09300
C2571       C  0.70112053  0.20150569  0.07206961    -0.18100
C2572       C  0.69507697  0.18098577  0.06715539     0.04300
C2573       C  0.69919392  0.17370971  0.04691948     0.18400
C2574       C  0.71046341  0.18598381  0.03296699    -0.19600
C2575       C  0.69166574  0.15436612  0.04056003    -0.20800
C2576       C  0.67950257  0.14238290  0.05367917    -0.19400
C2577       C  0.67564768  0.14885279  0.07390008     0.19800
C2578       C  0.68433285  0.16770371  0.08125327     0.02000
C2579       C  0.68239441  0.17207988  0.10246638    -0.14100
C2580       C  0.67121739  0.15883716  0.11549246    -0.11800
C2581       C  0.66017561  0.14160898  0.10771423     0.01500
C2582       C  0.66335891  0.13639373  0.08685344    -0.24000
H2583       H  0.71472477  0.23000336  0.06153744     0.09500
H2584       H  0.69756476  0.20842610  0.08678939     0.13100
H2585       H  0.71434500  0.17976588  0.01793488     0.11800
H2586       H  0.69461385  0.14877520  0.02509183     0.13000
H2587       H  0.67329610  0.12780956  0.04804603     0.12000
H2588       H  0.68998204  0.18525956  0.10946210     0.09100
H2589       H  0.67067693  0.16240432  0.13178805     0.12400
H2590       H  0.65691459  0.12217759  0.08067905     0.14200
C2591       C  0.71826851  0.20437425  0.93248582    -0.01300
C2592       C  0.71381678  0.18387709  0.93823865    -0.09300
C2593       C  0.70379406  0.17038236  0.92473689    -0.18100
C2594       C  0.69832701  0.17676573  0.90462122     0.04300
C2595       C  0.70425286  0.19695844  0.89816329     0.18400
C2596       C  0.71324161  0.21086997  0.91235253    -0.19600
C2597       C  0.70129200  0.20293724  0.87757810    -0.20800
C2598       C  0.69242050  0.18923352  0.86340708    -0.19400
C2599       C  0.68493851  0.16982813  0.86983139     0.19800
C2600       C  0.68723921  0.16373025  0.89069626     0.02000
C2601       C  0.67723084  0.14546618  0.89717747    -0.14100
C2602       C  0.66517911  0.13382188  0.88365462    -0.11800
C2603       C  0.66361088  0.13886559  0.86253337     0.01500
C2604       C  0.67431939  0.15688482  0.85582104    -0.24000
H2605       H  0.71818318  0.17821213  0.95336740     0.09500
H2606       H  0.70116055  0.15478853  0.93021582     0.13100
H2607       H  0.71667298  0.22664396  0.90761684     0.11800
H2608       H  0.70614241  0.21816723  0.87234681     0.13000
H2609       H  0.69057175  0.19420564  0.84754952     0.12000
H2610       H  0.67723733  0.14051823  0.91305896     0.09100
H2611       H  0.65695102  0.12110413  0.89053566     0.12400
H2612       H  0.67336781  0.16148122  0.83977377     0.14200
C2613       C  0.79733380  0.27955130  0.03936795    -0.01300
C2614       C  0.81285195  0.26957374  0.05097510    -0.09300
C2615       C  0.82340789  0.28012436  0.06669847    -0.18100
C2616       C  0.81958241  0.30142592  0.07040667     0.04300
C2617       C  0.80464743  0.31166686  0.05778626     0.18400
C2618       C  0.79305098  0.30049723  0.04323567    -0.19600
C2619       C  0.80185176  0.33315035  0.05925811    -0.20800
C2620       C  0.81427476  0.34484327  0.07235338    -0.19400
C2621       C  0.82884853  0.33516572  0.08520769     0.19800
C2622       C  0.83082564  0.31325174  0.08534182     0.02000
C2623       C  0.84378965  0.30425420  0.10051006    -0.14100
C2624       C  0.85565278  0.31668846  0.11378780    -0.11800
C2625       C  0.85619950  0.33849910  0.11141882     0.01500
C2626       C  0.84175082  0.34740007  0.09762445    -0.24000
H2627       H  0.81668078  0.25347720  0.04795244     0.09500
H2628       H  0.83516539  0.27158883  0.07507488     0.13100
H2629       H  0.78117101  0.30832458  0.03421029     0.11800
H2630       H  0.79060693  0.34107703  0.04957198     0.13000
H2631       H  0.81241219  0.36157288  0.07248641     0.12000
H2632       H  0.84460083  0.28764796  0.10270761     0.09100
H2633       H  0.86449914  0.30887424  0.12562881     0.12400
H2634       H  0.84098620  0.36411614  0.09602754     0.14200
C2635       C  0.85867370  0.33605964  0.85949015    -0.01300
C2636       C  0.83821087  0.34287344  0.86360521    -0.09300
C2637       C  0.82532827  0.33231192  0.87740905    -0.18100
C2638       C  0.83250838  0.31469061  0.88827146     0.04300
C2639       C  0.85353784  0.30859943  0.88527976     0.18400
C2640       C  0.86645767  0.31972581  0.87176241    -0.19600
C2641       C  0.86160077  0.29134384  0.89572205    -0.20800
C2642       C  0.84924301  0.28001700  0.90920865    -0.19400
C2643       C  0.82859091  0.28582853  0.91282677     0.19800
C2644       C  0.81981376  0.30319329  0.90234770     0.02000
C2645       C  0.79880763  0.30833583  0.90660723    -0.14100
C2646       C  0.78729787  0.29704620  0.92104241    -0.11800
C2647       C  0.79627176  0.28030969  0.93152734     0.01500
C2648       C  0.81677890  0.27457658  0.92719580    -0.24000
H2649       H  0.83201426  0.35678193  0.85656171     0.09500
H2650       H  0.80986645  0.33848453  0.87937226     0.13100
H2651       H  0.88264689  0.31521984  0.87027756     0.11800
H2652       H  0.87759415  0.28652583  0.89339891     0.13000
H2653       H  0.85597522  0.26674341  0.91706039     0.12000
H2654       H  0.79089714  0.32109020  0.89921307     0.09100
H2655       H  0.77138554  0.30155899  0.92427852     0.12400
H2656       H  0.82360943  0.26151241  0.93532993     0.14200
C2657       C  0.21898468  0.70124816  0.03748471    -0.01300
C2658       C  0.22241335  0.67985226  0.03736811    -0.09300
C2659       C  0.21109155  0.66679589  0.05028357    -0.18100
C2660       C  0.19563689  0.67482671  0.06359314     0.04300
C2661       C  0.19239715  0.69670153  0.06375971     0.18400
C2662       C  0.20418843  0.70971179  0.05085395    -0.19600
C2663       C  0.17720969  0.70538204  0.07656848    -0.20800
C2664       C  0.16496026  0.69278637  0.08905196    -0.19400
C2665       C  0.16780454  0.67121469  0.08928552     0.19800
C2666       C  0.18323478  0.66194793  0.07663491     0.02000
C2667       C  0.18538578  0.64015452  0.07740129    -0.14100
C2668       C  0.17352881  0.62826433  0.09091428    -0.11800
C2669       C  0.15899332  0.63738079  0.10440039     0.01500
C2670       C  0.15534223  0.65889555  0.10223402    -0.24000
H2671       H  0.23389438  0.67320304  0.02708551     0.09500
H2672       H  0.21470143  0.65049921  0.04929036     0.13100
H2673       H  0.20158637  0.72635365  0.05083263     0.11800
H2674       H  0.17467219  0.72202224  0.07681622     0.13000
H2675       H  0.15329370  0.70000053  0.09874619     0.12000
H2676       H  0.19627965  0.63175340  0.06796469     0.09100
H2677       H  0.17610929  0.61164160  0.09122663     0.12400
H2678       H  0.14274901  0.66637329  0.11033396     0.14200
C2679       C  0.22161087  0.69651666  0.93371563    -0.01300
C2680       C  0.22991746  0.69225038  0.91401847    -0.09300
C2681       C  0.21890952  0.68055933  0.89945797    -0.18100
C2682       C  0.20034501  0.67037354  0.90488932     0.04300
C2683       C  0.19482550  0.67028026  0.92598996     0.18400
C2684       C  0.20552745  0.68294366  0.94007347    -0.19600
C2685       C  0.17870402  0.65746863  0.93293973    -0.20800
C2686       C  0.16773715  0.64507512  0.91917550    -0.19400
C2687       C  0.17186435  0.64606016  0.89800548     0.19800
C2688       C  0.18784926  0.65916141  0.89049341     0.02000
C2689       C  0.19024637  0.66090838  0.86894845    -0.14100
C2690       C  0.17728954  0.64991374  0.85544699    -0.11800
C2691       C  0.16174743  0.63631510  0.86277083     0.01500
C2692       C  0.15991347  0.63409415  0.88436745    -0.24000
H2693       H  0.24536993  0.69706684  0.90976677     0.09500
H2694       H  0.22574064  0.67878941  0.88436327     0.13100
H2695       H  0.20138442  0.68137765  0.95605219     0.11800
H2696       H  0.17461159  0.65694827  0.94912667     0.13000
H2697       H  0.15547409  0.63517114  0.92505890     0.12000
H2698       H  0.20156476  0.67125499  0.86219581     0.09100
H2699       H  0.17945801  0.65196957  0.83902706     0.12400
H2700       H  0.14927111  0.62305350  0.89105405     0.14200
C2701       C  0.29703132  0.77685458  0.03995536    -0.01300
C2702       C  0.28673446  0.78831700  0.05510824    -0.09300
C2703       C  0.29791231  0.80075810  0.06881698    -0.18100
C2704       C  0.31988187  0.80216474  0.06766948     0.04300
C2705       C  0.33020124  0.79027325  0.05229316     0.18400
C2706       C  0.31874542  0.77778839  0.03867485    -0.19600
C2707       C  0.35187205  0.79110783  0.05042227    -0.20800
C2708       C  0.36361147  0.80340300  0.06362533    -0.19400
C2709       C  0.35395906  0.81526566  0.07894578     0.19800
C2710       C  0.33198463  0.81497520  0.08110091     0.02000
C2711       C  0.32309915  0.82773306  0.09642426    -0.14100
C2712       C  0.33545366  0.84017593  0.10910314    -0.11800
C2713       C  0.35734539  0.84007119  0.10756600     0.01500
C2714       C  0.36624208  0.82752768  0.09204818    -0.24000
H2715       H  0.26990246  0.78795640  0.05603845     0.09500
H2716       H  0.28887774  0.80918089  0.08000137     0.13100
H2717       H  0.32665348  0.76903373  0.02674843     0.11800
H2718       H  0.35980852  0.78217020  0.03866703     0.13000
H2719       H  0.38037593  0.80367936  0.06179745     0.12000
H2720       H  0.30654639  0.82873195  0.09883713     0.09100
H2721       H  0.32737421  0.84997226  0.11991177     0.12400
H2722       H  0.38301323  0.82737971  0.09017785     0.14200
C2723       C  0.36020424  0.83537530  0.86494596    -0.01300
C2724       C  0.34238304  0.82508675  0.85743943    -0.09300
C2725       C  0.32877047  0.81502737  0.87079842    -0.18100
C2726       C  0.33378969  0.81279631  0.89178410     0.04300
C2727       C  0.35363689  0.81952798  0.89857481     0.18400
C2728       C  0.36627720  0.83136996  0.88546614    -0.19600
C2729       C  0.36073723  0.81409469  0.91827575    -0.20800
C2730       C  0.34854794  0.80170245  0.93106409    -0.19400
C2731       C  0.32829294  0.79625115  0.92515859     0.19800
C2732       C  0.32020914  0.80305325  0.90600731     0.02000
C2733       C  0.29869450  0.80074267  0.90226468    -0.14100
C2734       C  0.28591461  0.79105966  0.91675627    -0.11800
C2735       C  0.29453310  0.78157377  0.93427936     0.01500
C2736       C  0.31585614  0.78439454  0.93836682    -0.24000
H2737       H  0.33832491  0.82591672  0.84125517     0.09500
H2738       H  0.31480968  0.80833052  0.86430391     0.13100
H2739       H  0.38104435  0.83703040  0.89121115     0.11800
H2740       H  0.37602679  0.81884863  0.92352450     0.13000
H2741       H  0.35467690  0.79701725  0.94592807     0.12000
H2742       H  0.29134463  0.80730070  0.88874872     0.09100
H2743       H  0.26928388  0.79065430  0.91405548     0.12400
H2744       H  0.32261800  0.77789751  0.95227690     0.14200
C2745       C  0.22797113  0.43479023  0.19319130    -0.01300
C2746       C  0.20630606  0.43615006  0.19419759    -0.09300
C2747       C  0.19384111  0.42248610  0.18305606    -0.18100
C2748       C  0.20278709  0.40708640  0.17028585     0.04300
C2749       C  0.22487924  0.40572668  0.16948530     0.18400
C2750       C  0.23723725  0.41935306  0.18114816    -0.19600
C2751       C  0.23447381  0.39124202  0.15654344    -0.20800
C2752       C  0.22260654  0.37851883  0.14383000    -0.19400
C2753       C  0.20083462  0.37960748  0.14410931     0.19800
C2754       C  0.19062773  0.39348239  0.15777628     0.02000
C2755       C  0.16868605  0.39331759  0.15815679    -0.14100
C2756       C  0.15739414  0.38043914  0.14509077    -0.11800
C2757       C  0.16730262  0.36700047  0.13104626     0.01500
C2758       C  0.18925204  0.36694545  0.13068314    -0.24000
H2759       H  0.19901982  0.44817155  0.20337358     0.09500
H2760       H  0.17729572  0.42483080  0.18431075     0.13100
H2761       H  0.25407469  0.41852224  0.18027409     0.11800
H2762       H  0.25129144  0.39009199  0.15587767     0.13000
H2763       H  0.23053049  0.36778622  0.13365008     0.12000
H2764       H  0.15970540  0.40281790  0.16850440     0.09100
H2765       H  0.14056485  0.38081199  0.14606317     0.12400
H2766       H  0.19763959  0.35717420  0.12002889     0.14200
C2767       C  0.16231070  0.61086372  0.13391385    -0.01300
C2768       C  0.18379541  0.61518799  0.13520433    -0.09300
C2769       C  0.19724717  0.60249053  0.14656732    -0.18100
C2770       C  0.18972482  0.58512902  0.15758101     0.04300
C2771       C  0.16786199  0.58191769  0.15792450     0.18400
C2772       C  0.15450604  0.59496777  0.14666767    -0.19600
C2773       C  0.15941855  0.56536128  0.16909482    -0.20800
C2774       C  0.17226783  0.55168606  0.17974705    -0.19400
C2775       C  0.19389741  0.55414666  0.17940021     0.19800
C2776       C  0.20301364  0.57087760  0.16829816     0.02000
C2777       C  0.22501384  0.57230745  0.16810849    -0.14100
C2778       C  0.23733710  0.55780888  0.17859357    -0.11800
C2779       C  0.22819620  0.54157376  0.18970268     0.01500
C2780       C  0.20647625  0.53983308  0.19000908    -0.24000
H2781       H  0.19053990  0.62839871  0.12742075     0.09500
H2782       H  0.21348011  0.60668088  0.14641258     0.13100
H2783       H  0.13791314  0.59195389  0.14682309     0.11800
H2784       H  0.14274374  0.56284512  0.16943968     0.13000
H2785       H  0.16523571  0.53895116  0.18815255     0.12000
H2786       H  0.23316608  0.58427860  0.15979190     0.09100
H2787       H  0.25412632  0.55922291  0.17800725     0.12400
H2788       H  0.19938759  0.52718490  0.19852377     0.14200
C2789       C  0.22477229  0.19694449  0.53897711    -0.01300
C2790       C  0.20583228  0.20487613  0.54612673    -0.09300
C2791       C  0.19406861  0.19410586  0.56074126    -0.18100
C2792       C  0.20097227  0.17490276  0.56891192     0.04300
C2793       C  0.22067800  0.16732768  0.56228710     0.18400
C2794       C  0.23226085  0.17824112  0.54729878    -0.19600
C2795       C  0.22853531  0.14876731  0.57047316    -0.20800
C2796       C  0.21703794  0.13728109  0.58466560    -0.19400
C2797       C  0.19721006  0.14385076  0.59085574     0.19800
C2798       C  0.18891955  0.16279472  0.58312126     0.02000
C2799       C  0.16855938  0.16831446  0.58924015    -0.14100
C2800       C  0.15676004  0.15532394  0.60190504    -0.11800
C2801       C  0.16487203  0.13663747  0.60986111     0.01500
C2802       C  0.18533758  0.13114638  0.60411675    -0.24000
H2803       H  0.19995474  0.21943973  0.54008031     0.09500
H2804       H  0.17963794  0.20124872  0.56533091     0.13100
H2805       H  0.24703972  0.17214806  0.54197065     0.11800
H2806       H  0.24362104  0.14297284  0.56571307     0.13000
H2807       H  0.22352640  0.12287795  0.59049003     0.12000
H2808       H  0.16093803  0.18219933  0.58383023     0.09100
H2809       H  0.14083296  0.15974806  0.60513279     0.12400
H2810       H  0.19177165  0.11640111  0.60903242     0.14200
C2811       C  0.21660247  0.20747531  0.43144520    -0.01300
C2812       C  0.19538847  0.21181311  0.42868476    -0.09300
C2813       C  0.18349907  0.20061245  0.41438317    -0.18100
C2814       C  0.19272431  0.18512451  0.40189199     0.04300
C2815       C  0.21460289  0.18218893  0.40355365     0.18400
C2816       C  0.22611343  0.19280750  0.41862477    -0.19600
C2817       C  0.22487760  0.16854846  0.39025300    -0.20800
C2818       C  0.21381762  0.15732384  0.37562321    -0.19400
C2819       C  0.19207969  0.15860652  0.37466538     0.19800
C2820       C  0.18116062  0.17234634  0.38790350     0.02000
C2821       C  0.15919128  0.17214116  0.38699363    -0.14100
C2822       C  0.14861194  0.15829847  0.37406312    -0.11800
C2823       C  0.15935090  0.14418707  0.36127556     0.01500
C2824       C  0.18127030  0.14567398  0.36090881    -0.24000
H2825       H  0.18789141  0.22354263  0.43805399     0.09500
H2826       H  0.16720759  0.20451355  0.41325852     0.13100
H2827       H  0.24261811  0.18971355  0.42041270     0.11800
H2828       H  0.24160948  0.16656027  0.39115205     0.13000
H2829       H  0.22227459  0.14689095  0.36555543     0.12000
H2830       H  0.14976293  0.18193130  0.39670132     0.09100
H2831       H  0.13175381  0.15824797  0.37434667     0.12400
H2832       H  0.19035252  0.13667201  0.35017315     0.14200
C2833       C  0.56136382  0.19042444  0.20396021    -0.01300
C2834       C  0.56866745  0.20109285  0.18666511    -0.09300
C2835       C  0.58275775  0.19182058  0.17320507    -0.18100
C2836       C  0.58977974  0.17125209  0.17646923     0.04300
C2837       C  0.58207402  0.16037711  0.19397640     0.18400
C2838       C  0.56827540  0.17014682  0.20771866    -0.19600
C2839       C  0.58801451  0.13976276  0.19751096    -0.20800
C2840       C  0.60135066  0.12964126  0.18395808    -0.19400
C2841       C  0.60944329  0.14002314  0.16678269     0.19800
C2842       C  0.60400033  0.16103429  0.16292307     0.02000
C2843       C  0.61287551  0.17081672  0.14554842    -0.14100
C2844       C  0.62685090  0.16034513  0.13282253    -0.11800
C2845       C  0.63293707  0.13972860  0.13696263     0.01500
C2846       C  0.62304084  0.12948179  0.15347515    -0.24000
H2847       H  0.56337834  0.21677787  0.18357435     0.09500
H2848       H  0.58760851  0.20110056  0.16026844     0.13100
H2849       H  0.56261456  0.16190697  0.22116638     0.11800
H2850       H  0.58214223  0.13133773  0.21074409     0.13000
H2851       H  0.60552534  0.11362262  0.18704530     0.12000
H2852       H  0.60932771  0.18659171  0.14127218     0.09100
H2853       H  0.63229891  0.16849317  0.11931401     0.12400
H2854       H  0.62643940  0.11322281  0.15627339     0.14200
C2855       C  0.45541102  0.19538940  0.19841063    -0.01300
C2856       C  0.46162873  0.18977213  0.17843972    -0.09300
C2857       C  0.44860161  0.17822409  0.16566657    -0.18100
C2858       C  0.42832339  0.17288665  0.17201203     0.04300
C2859       C  0.42109098  0.18061507  0.19114973     0.18400
C2860       C  0.43494498  0.19076294  0.20462483    -0.19600
C2861       C  0.40009119  0.17821256  0.19650361    -0.20800
C2862       C  0.38622002  0.16850673  0.18301299    -0.19400
C2863       C  0.39343562  0.15932904  0.16479151     0.19800
C2864       C  0.41483574  0.16049021  0.15975488     0.02000
C2865       C  0.42221922  0.14813471  0.14349554    -0.14100
C2866       C  0.40875175  0.13566572  0.13215831    -0.11800
C2867       C  0.38697799  0.13636976  0.13518927     0.01500
C2868       C  0.37963201  0.14839072  0.15191557    -0.24000
H2869       H  0.47696164  0.19389854  0.17285983     0.09500
H2870       H  0.45444684  0.17425373  0.15058190     0.13100
H2871       H  0.42975446  0.19513480  0.21989407     0.11800
H2872       H  0.39426227  0.18436618  0.21091687     0.13000
H2873       H  0.36995518  0.16740588  0.18726812     0.12000
H2874       H  0.43862617  0.14680304  0.14013638     0.09100
H2875       H  0.41601431  0.12539137  0.12125973     0.12400
H2876       H  0.36312083  0.14856698  0.15533133     0.14200
C2877       C  0.06890479  0.28199091  0.19098381    -0.01300
C2878       C  0.06662901  0.28132194  0.16954181    -0.09300
C2879       C  0.08143116  0.29054727  0.15672571    -0.18100
C2880       C  0.09904856  0.30067455  0.16511136     0.04300
C2881       C  0.10117147  0.30118230  0.18693122     0.18400
C2882       C  0.08620386  0.29188401  0.19955250    -0.19600
C2883       C  0.11801941  0.31131720  0.19610190    -0.20800
C2884       C  0.13234639  0.32190570  0.18410129    -0.19400
C2885       C  0.13030228  0.32233562  0.16264264     0.19800
C2886       C  0.11421268  0.31100853  0.15275790     0.02000
C2887       C  0.11401286  0.31070650  0.13099405    -0.14100
C2888       C  0.12773575  0.32307977  0.11969538    -0.11800
C2889       C  0.14148818  0.33688078  0.12962653     0.01500
C2890       C  0.14390291  0.33468141  0.15111989    -0.24000
H2891       H  0.05325716  0.27371852  0.16272313     0.09500
H2892       H  0.07847292  0.28985734  0.14038896     0.13100
H2893       H  0.08782879  0.29252220  0.21618151     0.11800
H2894       H  0.11980676  0.31155113  0.21271105     0.13000
H2895       H  0.14484035  0.33022660  0.19170112     0.12000
H2896       H  0.10322230  0.30135921  0.12229750     0.09100
H2897       H  0.12652203  0.32310924  0.10304395     0.12400
H2898       H  0.15599081  0.34291404  0.15931208     0.14200
C2899       C  0.96596267  0.21429795  0.27905328    -0.01300
C2900       C  0.96961100  0.19290561  0.27839030    -0.09300
C2901       C  0.95663488  0.17909221  0.28875720    -0.18100
C2902       C  0.93938590  0.18628552  0.30023116     0.04300
C2903       C  0.93575082  0.20809464  0.30088911     0.18400
C2904       C  0.94902572  0.22187341  0.29034720    -0.19600
C2905       C  0.91887021  0.21597181  0.31202330    -0.20800
C2906       C  0.90550458  0.20267471  0.32252068    -0.19400
C2907       C  0.90867779  0.18113854  0.32220147     0.19800
C2908       C  0.92563040  0.17263918  0.31103227     0.02000
C2909       C  0.92795936  0.15083902  0.31101243    -0.14100
C2910       C  0.91429068  0.13810443  0.32187170    -0.11800
C2911       C  0.89780237  0.14631238  0.33369855     0.01500
C2912       C  0.89494726  0.16811389  0.33306845    -0.24000
H2913       H  0.98263397  0.18683834  0.26966751     0.09500
H2914       H  0.96056947  0.16289332  0.28744408     0.13100
H2915       H  0.94624043  0.23847511  0.29089888     0.11800
H2916       H  0.91596808  0.23254389  0.31261050     0.13000
H2917       H  0.89259788  0.20931050  0.33100782     0.12000
H2918       H  0.94021417  0.14304004  0.30277633     0.09100
H2919       H  0.91679500  0.12146739  0.32139199     0.12400
H2920       H  0.88200215  0.17533033  0.34091365     0.14200
C2921       C  0.88681694  0.34133955  0.13740793    -0.01300
C2922       C  0.89061137  0.34731548  0.15794667    -0.09300
C2923       C  0.90503550  0.33683611  0.17021294    -0.18100
C2924       C  0.91676516  0.32007124  0.16239469     0.04300
C2925       C  0.91407557  0.31479825  0.14134088     0.18400
C2926       C  0.89980738  0.32578489  0.12905938    -0.19600
C2927       C  0.92562885  0.29858063  0.13264412    -0.20800
C2928       C  0.93987431  0.28746591  0.14447416    -0.19400
C2929       C  0.94296116  0.29235786  0.16526066     0.19800
C2930       C  0.93136436  0.30866633  0.17458345     0.02000
C2931       C  0.93491141  0.31284363  0.19571091    -0.14100
C2932       C  0.94962309  0.30160475  0.20693435    -0.11800
C2933       C  0.96118012  0.28590744  0.19754233     0.01500
C2934       C  0.95775233  0.28119527  0.17677763    -0.24000
H2935       H  0.88309462  0.36066486  0.16468612     0.09500
H2936       H  0.90683753  0.34252113  0.18570790     0.13100
H2937       H  0.89843513  0.32193255  0.11285289     0.11800
H2938       H  0.92360805  0.29443884  0.11658203     0.13000
H2939       H  0.94859583  0.27501156  0.13729579     0.12000
H2940       H  0.92664678  0.32470971  0.20403882     0.09100
H2941       H  0.95224734  0.30536956  0.22299543     0.12400
H2942       H  0.96680169  0.26896513  0.16959245     0.14200
C2943       C  0.13262853  0.14270460  0.33379175    -0.01300
C2944       C  0.11073573  0.14112057  0.33356076    -0.09300
C2945       C  0.09860135  0.15341326  0.32063084    -0.18100
C2946       C  0.10755348  0.16915461  0.30851529     0.04300
C2947       C  0.12920536  0.17270449  0.31033926     0.18400
C2948       C  0.14163434  0.15890290  0.32196406    -0.19600
C2949       C  0.13797949  0.19039656  0.30113872    -0.20800
C2950       C  0.12536732  0.20488303  0.29092298    -0.19400
C2951       C  0.10402968  0.20109263  0.28817237     0.19800
C2952       C  0.09532577  0.18236882  0.29577376     0.02000
C2953       C  0.07478083  0.17734767  0.29010449    -0.14100
C2954       C  0.06272488  0.19117802  0.27877938    -0.11800
C2955       C  0.07024469  0.21091888  0.27351474     0.01500
C2956       C  0.09119620  0.21569033  0.27797112    -0.24000
H2957       H  0.10239129  0.13070951  0.34355450     0.09500
H2958       H  0.08196406  0.15121760  0.32144117     0.13100
H2959       H  0.15833335  0.16123254  0.32250865     0.11800
H2960       H  0.15448636  0.19350437  0.30263494     0.13000
H2961       H  0.13238947  0.21888134  0.28480675     0.12000
H2962       H  0.06788936  0.16251089  0.29375013     0.09100
H2963       H  0.04706842  0.18659647  0.27455374     0.12400
H2964       H  0.09746486  0.23067145  0.27358571     0.14200
C2965       C  0.35886993  0.86959102  0.13449411    -0.01300
C2966       C  0.35948722  0.89135054  0.13167555    -0.09300
C2967       C  0.34763163  0.90472861  0.14369963    -0.18100
C2968       C  0.33559616  0.89723463  0.16016600     0.04300
C2969       C  0.33655293  0.87573163  0.16472784     0.18400
C2970       C  0.34745437  0.86212681  0.15160473    -0.19600
C2971       C  0.32707828  0.86814086  0.18265846    -0.20800
C2972       C  0.31724546  0.88167352  0.19634607    -0.19400
C2973       C  0.31538699  0.90286585  0.19169561     0.19800
C2974       C  0.32359002  0.91062974  0.17293492     0.02000
C2975       C  0.31911381  0.93137763  0.16748752    -0.14100
C2976       C  0.30792569  0.94422759  0.18070454    -0.11800
C2977       C  0.30165587  0.93728587  0.20024146     0.01500
C2978       C  0.30535323  0.91639585  0.20555438    -0.24000
H2979       H  0.36938213  0.89872380  0.12050223     0.09500
H2980       H  0.34911814  0.92110966  0.14049858     0.13100
H2981       H  0.34748199  0.84562298  0.15493311     0.11800
H2982       H  0.32788593  0.85177004  0.18646630     0.13000
H2983       H  0.31070655  0.87546791  0.21044434     0.12000
H2984       H  0.32348538  0.93785561  0.15277769     0.09100
H2985       H  0.30446968  0.95992633  0.17574130     0.12400
H2986       H  0.30039730  0.91064345  0.22045574     0.14200
C2987       C  0.22617690  0.04216804  0.28129818    -0.01300
C2988       C  0.21023629  0.05212555  0.27029852    -0.09300
C2989       C  0.19727691  0.06668553  0.27986932    -0.18100
C2990       C  0.19945163  0.07127045  0.30108603     0.04300
C2991       C  0.21537416  0.06072138  0.31223033     0.18400
C2992       C  0.22899193  0.04700793  0.30213329    -0.19600
C2993       C  0.21739406  0.06361434  0.33349137    -0.20800
C2994       C  0.20380735  0.07660710  0.34402041    -0.19400
C2995       C  0.18843386  0.08775559  0.33342890     0.19800
C2996       C  0.18630203  0.08566459  0.31176318     0.02000
C2997       C  0.17121280  0.09816270  0.30181678    -0.14100
C2998       C  0.15900955  0.11231894  0.31288658    -0.11800
C2999       C  0.16102477  0.11439985  0.33444687     0.01500
C3000       C  0.17532998  0.10116532  0.34447241    -0.24000
H3001       H  0.20784995  0.04861028  0.25414482     0.09500
H3002       H  0.18536161  0.07367265  0.27041792     0.13100
H3003       H  0.24152923  0.03962765  0.31063098     0.11800
H3004       H  0.22933745  0.05546199  0.34211687     0.13000
H3005       H  0.20559325  0.07824356  0.36054795     0.12000
H3006       H  0.16868923  0.09757667  0.28540420     0.09100
H3007       H  0.14759811  0.12115799  0.30432602     0.12400
H3008       H  0.17667870  0.10186223  0.36111784     0.14200
C3009       C  0.35818643  0.11063898  0.13767896    -0.01300
C3010       C  0.33622318  0.11083531  0.13843939    -0.09300
C3011       C  0.32531882  0.09808137  0.15208696    -0.18100
C3012       C  0.33587215  0.08569513  0.16667968     0.04300
C3013       C  0.35780395  0.08750241  0.16787068     0.18400
C3014       C  0.36868725  0.09900267  0.15298860    -0.19600
C3015       C  0.36870470  0.07788790  0.18398004    -0.20800
C3016       C  0.35821291  0.06607999  0.19865047    -0.19400
C3017       C  0.33680651  0.06246582  0.19674029     0.19800
C3018       C  0.32542312  0.07187783  0.18039614     0.02000
C3019       C  0.30432227  0.06629606  0.17785482    -0.14100
C3020       C  0.29499083  0.05185621  0.19094426    -0.11800
C3021       C  0.30605664  0.04307663  0.20740602     0.01500
C3022       C  0.32683458  0.04890223  0.21058163    -0.24000
H3023       H  0.32698663  0.12077898  0.12869543     0.09500
H3024       H  0.30854790  0.09885889  0.15148812     0.13100
H3025       H  0.38555462  0.09919326  0.15347830     0.11800
H3026       H  0.38541967  0.07968291  0.18535898     0.13000
H3027       H  0.36704718  0.05899136  0.21104279     0.12000
H3028       H  0.29497499  0.07208151  0.16526930     0.09100
H3029       H  0.27897883  0.04738170  0.18815800     0.12400
H3030       H  0.33542753  0.04225851  0.22338482     0.14200
C3031       C  0.22278745  0.93518800  0.27607035    -0.01300
C3032       C  0.20239065  0.94078992  0.28146706    -0.09300
C3033       C  0.18970475  0.92734594  0.29265890    -0.18100
C3034       C  0.19658931  0.90723099  0.29799828     0.04300
C3035       C  0.21629724  0.90064164  0.29060049     0.18400
C3036       C  0.22951132  0.91482311  0.28043421    -0.19600
C3037       C  0.22255158  0.87996513  0.29343972    -0.20800
C3038       C  0.20950077  0.86577238  0.30331514    -0.19400
C3039       C  0.19053862  0.87224864  0.31185595     0.19800
C3040       C  0.18436076  0.89329608  0.31005461     0.02000
C3041       C  0.16675567  0.89981863  0.32119863    -0.14100
C3042       C  0.15536524  0.88591946  0.33318901    -0.11800
C3043       C  0.16003877  0.86447772  0.33357507     0.01500
C3044       C  0.17794137  0.85797929  0.32260765    -0.24000
H3045       H  0.19636727  0.95598383  0.27744497     0.09500
H3046       H  0.17431027  0.93285698  0.29642649     0.13100
H3047       H  0.24505548  0.91003917  0.27602052     0.11800
H3048       H  0.23742589  0.87463891  0.28762028     0.13000
H3049       H  0.21457818  0.84979189  0.30486340     0.12000
H3050       H  0.16207159  0.91590492  0.32180211     0.09100
H3051       H  0.14297744  0.89258929  0.34213269     0.12400
H3052       H  0.18243127  0.84175439  0.32295576     0.14200
C3053       C  0.22379979  0.27284046  0.92690561    -0.01300
C3054       C  0.21834230  0.26467060  0.90757858    -0.09300
C3055       C  0.20705070  0.27653985  0.89329538    -0.18100
C3056       C  0.19974989  0.29661061  0.89838861     0.04300
C3057       C  0.20414353  0.30424195  0.91844571     0.18400
C3058       C  0.21691296  0.29290643  0.93193586    -0.19600
C3059       C  0.19524475  0.32286512  0.92517688    -0.20800
C3060       C  0.18163384  0.33382140  0.91253553    -0.19400
C3061       C  0.17782071  0.32725562  0.89231310     0.19800
C3062       C  0.18759536  0.30909777  0.88464705     0.02000
C3063       C  0.18525183  0.30460987  0.86349592    -0.14100
C3064       C  0.17326520  0.31742124  0.85066822    -0.11800
C3065       C  0.16203510  0.33455086  0.85851840     0.01500
C3066       C  0.16456798  0.33906651  0.87967173    -0.24000
H3067       H  0.22271442  0.24895800  0.90351772     0.09500
H3068       H  0.20335035  0.26930077  0.87875694     0.13100
H3069       H  0.22089205  0.29944053  0.94682201     0.11800
H3070       H  0.19827858  0.32863689  0.94057241     0.13000
H3071       H  0.17446816  0.34784260  0.91844769     0.12000
H3072       H  0.19323581  0.29175807  0.85633407     0.09100
H3073       H  0.17261432  0.31376181  0.83440243     0.12400
H3074       H  0.15680303  0.35208694  0.88665719     0.14200
C3075       C  0.35757481  0.13813432  0.10835712    -0.01300
C3076       C  0.36109199  0.15974481  0.10708651    -0.09300
C3077       C  0.35049907  0.17212654  0.09287597    -0.18100
C3078       C  0.33557104  0.16358759  0.07941125     0.04300
C3079       C  0.33121211  0.14207001  0.08112597     0.18400
C3080       C  0.34280767  0.12954469  0.09467251    -0.19600
C3081       C  0.31524696  0.13320771  0.06935372    -0.20800
C3082       C  0.30334308  0.14541400  0.05610589    -0.19400
C3083       C  0.30796250  0.16648053  0.05339478     0.19800
C3084       C  0.32467229  0.17568953  0.06444707     0.02000
C3085       C  0.33018067  0.19638831  0.05956201    -0.14100
C3086       C  0.31925585  0.20754221  0.04458723    -0.11800
C3087       C  0.30207661  0.19875952  0.03464206     0.01500
C3088       C  0.29636170  0.17828767  0.03926307    -0.24000
H3089       H  0.37263619  0.16741536  0.11646265     0.09500
H3090       H  0.35408904  0.18847705  0.09303831     0.13100
H3091       H  0.34018452  0.11291019  0.09481129     0.11800
H3092       H  0.31166227  0.11682191  0.07072026     0.13000
H3093       H  0.29080743  0.13820948  0.04751333     0.12000
H3094       H  0.34336230  0.20406487  0.06645790     0.09100
H3095       H  0.32424934  0.22312152  0.04068771     0.12400
H3096       H  0.28335761  0.17132160  0.03114617     0.14200
C3097       C  0.22515643  0.27677815  0.03218987    -0.01300
C3098       C  0.21879524  0.29663880  0.02572433    -0.09300
C3099       C  0.20732099  0.30963930  0.03865589    -0.18100
C3100       C  0.20261520  0.30364681  0.05904531     0.04300
C3101       C  0.21057248  0.28437944  0.06623356     0.18400
C3102       C  0.22069736  0.27072853  0.05256165    -0.19600
C3103       C  0.20850657  0.27901188  0.08705988    -0.20800
C3104       C  0.19877651  0.29247718  0.10082962    -0.19400
C3105       C  0.18951813  0.31089062  0.09381811     0.19800
C3106       C  0.19060653  0.31625959  0.07267183     0.02000
C3107       C  0.17878979  0.33339033  0.06584279    -0.14100
C3108       C  0.16663577  0.34492576  0.07950968    -0.11800
C3109       C  0.16679842  0.34086476  0.10090401     0.01500
C3110       C  0.17862295  0.32362101  0.10770959    -0.24000
H3111       H  0.22255721  0.30210528  0.01038693     0.09500
H3112       H  0.20296200  0.32463533  0.03257899     0.13100
H3113       H  0.22524936  0.25543270  0.05789361     0.11800
H3114       H  0.21486242  0.26452839  0.09282209     0.13000
H3115       H  0.19782179  0.28808934  0.11692704     0.12000
H3116       H  0.17773834  0.33749397  0.04974647     0.09100
H3117       H  0.15703872  0.35682312  0.07274221     0.12400
H3118       H  0.17873422  0.31966288  0.12394852     0.14200
C3119       C  0.30403196  0.19846409  0.92716294    -0.01300
C3120       C  0.32387010  0.20530781  0.92153861    -0.09300
C3121       C  0.33571079  0.19427128  0.90713302    -0.18100
C3122       C  0.32807196  0.17577356  0.89803426     0.04300
C3123       C  0.30792021  0.16888814  0.90399666     0.18400
C3124       C  0.29611135  0.18029366  0.91831979    -0.19600
C3125       C  0.29976027  0.15050965  0.89582592    -0.20800
C3126       C  0.31116595  0.13872755  0.88187090    -0.19400
C3127       C  0.33098142  0.14508347  0.87553213     0.19800
C3128       C  0.33971529  0.16371023  0.88347284     0.02000
C3129       C  0.35991945  0.16910813  0.87687953    -0.14100
C3130       C  0.37090089  0.15657310  0.86310058    -0.11800
C3131       C  0.36203512  0.13857890  0.85433734     0.01500
C3132       C  0.34220657  0.13265067  0.86154082    -0.24000
H3133       H  0.33024507  0.21924557  0.92841441     0.09500
H3134       H  0.35082396  0.20053417  0.90356690     0.13100
H3135       H  0.28081174  0.17489540  0.92288184     0.11800
H3136       H  0.28446451  0.14511870  0.90036866     0.13000
H3137       H  0.30440177  0.12451383  0.87596604     0.12000
H3138       H  0.36787374  0.18274029  0.88238449     0.09100
H3139       H  0.38669590  0.16099918  0.85934560     0.12400
H3140       H  0.33559485  0.11795693  0.85683151     0.14200
C3141       C  0.63326870  0.63914596  0.63659769    -0.01300
C3142       C  0.62094275  0.62833979  0.65102827    -0.09300
C3143       C  0.60714137  0.63861596  0.66408028    -0.18100
C3144       C  0.60456957  0.66035219  0.66301925     0.04300
C3145       C  0.61575484  0.67122787  0.64752472     0.18400
C3146       C  0.62954928  0.66062301  0.63434246    -0.19600
C3147       C  0.61317268  0.69271094  0.64529251    -0.20800
C3148       C  0.60012747  0.70372012  0.65844105    -0.19400
C3149       C  0.58928174  0.69354965  0.67416852     0.19800
C3150       C  0.59120302  0.67166540  0.67662518     0.02000
C3151       C  0.57971420  0.66212366  0.69265038    -0.14100
C3152       C  0.56677633  0.67379552  0.70547320    -0.11800
C3153       C  0.56499630  0.69527840  0.70292921     0.01500
C3154       C  0.57632976  0.70511936  0.68733918    -0.24000
H3155       H  0.62245039  0.61164700  0.65254307     0.09500
H3156       H  0.59876424  0.62905114  0.67486667     0.13100
H3157       H  0.63698103  0.66930557  0.62216978     0.11800
H3158       H  0.62147892  0.70112082  0.63340162     0.13000
H3159       H  0.59859703  0.72035310  0.65635369     0.12000
H3160       H  0.58026919  0.64567354  0.69561804     0.09100
H3161       H  0.55782316  0.66597984  0.71729557     0.12400
H3162       H  0.57462073  0.72173643  0.68518097     0.14200
C3163       C  0.66456110  0.61427919  0.63656723    -0.01300
C3164       C  0.66680063  0.61765745  0.65795114    -0.09300
C3165       C  0.68008062  0.60543463  0.66994023    -0.18100
C3166       C  0.69228453  0.58963156  0.66099015     0.04300
C3167       C  0.69194859  0.58778085  0.63919443     0.18400
C3168       C  0.67845551  0.60015081  0.62731028    -0.19600
C3169       C  0.70473064  0.57323530  0.62938819    -0.20800
C3170       C  0.71726434  0.55990371  0.64084281    -0.19400
C3171       C  0.71700725  0.56051356  0.66239234     0.19800
C3172       C  0.70464647  0.57549926  0.67283449     0.02000
C3173       C  0.70450156  0.57504788  0.69464992    -0.14100
C3174       C  0.71560278  0.55991738  0.70552922    -0.11800
C3175       C  0.72747439  0.54505096  0.69510311     0.01500
C3176       C  0.72850042  0.54573418  0.67356606    -0.24000
H3177       H  0.65839541  0.62984080  0.66578200     0.09500
H3178       H  0.68054394  0.60883897  0.68618957     0.13100
H3179       H  0.67807202  0.59812140  0.61074070     0.11800
H3180       H  0.70478348  0.57192540  0.61274134     0.13000
H3181       H  0.72674576  0.54860127  0.63279317     0.12000
H3182       H  0.69539433  0.58569718  0.70372634     0.09100
H3183       H  0.71463140  0.55955443  0.72219036     0.12400
H3184       H  0.73773537  0.53421785  0.66550796     0.14200
C3185       C  0.66236845  0.63994327  0.60832875    -0.01300
C3186       C  0.67396705  0.65685553  0.61593652    -0.09300
C3187       C  0.68585479  0.66942877  0.60277169    -0.18100
C3188       C  0.68792540  0.66463162  0.58161560     0.04300
C3189       C  0.67871712  0.64595173  0.57453563     0.18400
C3190       C  0.66596360  0.63412402  0.58762337    -0.19600
C3191       C  0.68237679  0.63906391  0.55439931    -0.20800
C3192       C  0.69476626  0.65054490  0.54102772    -0.19400
C3193       C  0.70294240  0.66973502  0.54708769     0.19800
C3194       C  0.69920312  0.67732552  0.56730830     0.02000
C3195       C  0.70614145  0.69760803  0.57199199    -0.14100
C3196       C  0.71649040  0.70971733  0.55723822    -0.11800
C3197       C  0.72126821  0.70174183  0.53765045     0.01500
C3198       C  0.71445917  0.68156910  0.53285665    -0.24000
H3199       H  0.67329268  0.66076112  0.63214784     0.09500
H3200       H  0.69377335  0.68248995  0.60961516     0.13100
H3201       H  0.65932565  0.61994645  0.58157126     0.11800
H3202       H  0.67572342  0.62460063  0.54898192     0.13000
H3203       H  0.69742741  0.64467199  0.52561104     0.12000
H3204       H  0.70297469  0.70477791  0.58667723     0.09100
H3205       H  0.72072490  0.72548997  0.56118128     0.12400
H3206       H  0.71777444  0.67520930  0.51774904     0.14200
C3207       C  0.38865972  0.33835717  0.63696049    -0.01300
C3208       C  0.40182684  0.34824962  0.65130558    -0.09300
C3209       C  0.41563720  0.33700693  0.66362668    -0.18100
C3210       C  0.41787608  0.31534771  0.66125785     0.04300
C3211       C  0.40599355  0.30546171  0.64566139     0.18400
C3212       C  0.39129737  0.31675522  0.63415316    -0.19600
C3213       C  0.40928323  0.28443529  0.64118958    -0.20800
C3214       C  0.42440102  0.27312283  0.65168699    -0.19400
C3215       C  0.43582795  0.28226634  0.66763169     0.19800
C3216       C  0.43215148  0.30330296  0.67318569     0.02000
C3217       C  0.44272410  0.31127733  0.69058431    -0.14100
C3218       C  0.45689616  0.29904544  0.70151447    -0.11800
C3219       C  0.46138670  0.27878765  0.69514072     0.01500
C3220       C  0.45084449  0.27047548  0.67816966    -0.24000
H3221       H  0.40118935  0.36496113  0.65312328     0.09500
H3222       H  0.42501175  0.34582003  0.67427418     0.13100
H3223       H  0.38275546  0.30858815  0.62231971     0.11800
H3224       H  0.40045819  0.27681046  0.62913453     0.13000
H3225       H  0.42694292  0.25702475  0.64752210     0.12000
H3226       H  0.43996674  0.32672277  0.69637632     0.09100
H3227       H  0.46470807  0.30552412  0.71484174     0.12400
H3228       H  0.45417267  0.25468237  0.67339539     0.14200
C3229       C  0.35809060  0.36438576  0.63597041    -0.01300
C3230       C  0.35702312  0.36325362  0.65766115    -0.09300
C3231       C  0.34385416  0.37617654  0.66884630    -0.18100
C3232       C  0.33035650  0.39016939  0.65882765     0.04300
C3233       C  0.32897318  0.38918777  0.63705926     0.18400
C3234       C  0.34272151  0.37645208  0.62590936    -0.19600
C3235       C  0.31404669  0.40111639  0.62662435    -0.20800
C3236       C  0.30065482  0.41418020  0.63746397    -0.19400
C3237       C  0.30262111  0.41642340  0.65885397     0.19800
C3238       C  0.31792799  0.40481093  0.66972713     0.02000
C3239       C  0.32084648  0.40898946  0.69089562    -0.14100
C3240       C  0.30889285  0.42393535  0.70088723    -0.11800
C3241       C  0.29322239  0.43473239  0.69038894     0.01500
C3242       C  0.28984699  0.43062358  0.66941958    -0.24000
H3243       H  0.36617573  0.35236061  0.66646610     0.09500
H3244       H  0.34416303  0.37449515  0.68538384     0.13100
H3245       H  0.34202055  0.37644512  0.60921331     0.11800
H3246       H  0.31266210  0.40027057  0.61000215     0.13000
H3247       H  0.28916664  0.42310290  0.62898834     0.12000
H3248       H  0.33287198  0.40159999  0.69991206     0.09100
H3249       H  0.31189968  0.42715796  0.71700331     0.12400
H3250       H  0.27774532  0.43900390  0.66122560     0.14200
C3251       C  0.36099204  0.33786120  0.60840662    -0.01300
C3252       C  0.34501105  0.32533956  0.61670218    -0.09300
C3253       C  0.33237195  0.31297482  0.60412578    -0.18100
C3254       C  0.33586128  0.31179378  0.58270395     0.04300
C3255       C  0.35261520  0.32346568  0.57443526     0.18400
C3256       C  0.36407266  0.33706286  0.58692264    -0.19600
C3257       C  0.35817853  0.32123707  0.55372052    -0.20800
C3258       C  0.34782722  0.30716100  0.54119920    -0.19400
C3259       C  0.33061039  0.29621900  0.54862644     0.19800
C3260       C  0.32369839  0.29914113  0.56917578     0.02000
C3261       C  0.30457670  0.28993824  0.57492895    -0.14100
C3262       C  0.29273163  0.27866927  0.56060557    -0.11800
C3263       C  0.30024465  0.27492557  0.54060577     0.01500
C3264       C  0.31977645  0.28302693  0.53525501    -0.24000
H3265       H  0.34221323  0.32524306  0.63315383     0.09500
H3266       H  0.32051753  0.30383353  0.61162458     0.13100
H3267       H  0.37564379  0.34658956  0.57951878     0.11800
H3268       H  0.37106039  0.32996013  0.54731500     0.13000
H3269       H  0.35286502  0.30537717  0.52536886     0.12000
H3270       H  0.29788712  0.29229137  0.58999248     0.09100
H3271       H  0.27749110  0.27314680  0.56511439     0.12400
H3272       H  0.32598081  0.28011520  0.52000049     0.14200
C3273       C  0.71588541  0.43711880  0.26811222    -0.01300
C3274       C  0.69422136  0.43909990  0.26894483    -0.09300
C3275       C  0.68229053  0.42552986  0.28086508    -0.18100
C3276       C  0.69177550  0.40957032  0.29262602     0.04300
C3277       C  0.71380574  0.40752068  0.29148628     0.18400
C3278       C  0.72557866  0.42109751  0.27913013    -0.19600
C3279       C  0.72400767  0.39225242  0.30307840    -0.20800
C3280       C  0.71286379  0.37911032  0.31601441    -0.19400
C3281       C  0.69116534  0.38065314  0.31748152     0.19800
C3282       C  0.68028813  0.39577763  0.30567770     0.02000
C3283       C  0.65841035  0.39644223  0.30750180    -0.14100
C3284       C  0.64783280  0.38261936  0.32030816    -0.11800
C3285       C  0.65841244  0.36747620  0.33208507     0.01500
C3286       C  0.68034550  0.36703063  0.33065950    -0.24000
H3287       H  0.68653886  0.45151693  0.26059094     0.09500
H3288       H  0.66574453  0.42823196  0.28086563     0.13100
H3289       H  0.74239499  0.41970993  0.27863514     0.11800
H3290       H  0.74078024  0.39060972  0.30231833     0.13000
H3291       H  0.72130369  0.36758396  0.32490210     0.12000
H3292       H  0.64892607  0.40734250  0.29907871     0.09100
H3293       H  0.63101310  0.38363185  0.32091569     0.12400
H3294       H  0.68932643  0.35603024  0.33957434     0.14200
C3295       C  0.72439359  0.27913337  0.42845551    -0.01300
C3296       C  0.71820633  0.27065304  0.40949253    -0.09300
C3297       C  0.70652489  0.28233843  0.39536279    -0.18100
C3298       C  0.69990700  0.30274561  0.40010037     0.04300
C3299       C  0.70544679  0.31091814  0.41968872     0.18400
C3300       C  0.71812541  0.29944954  0.43323611    -0.19600
C3301       C  0.69781499  0.33027761  0.42589538    -0.20800
C3302       C  0.68414815  0.34134926  0.41337126    -0.19400
C3303       C  0.67873975  0.33395335  0.39377989     0.19800
C3304       C  0.68734985  0.31506447  0.38648730     0.02000
C3305       C  0.68328386  0.30957147  0.36582995    -0.14100
C3306       C  0.67062933  0.32198936  0.35323571    -0.11800
C3307       C  0.66043770  0.33988358  0.36084310     0.01500
C3308       C  0.66486307  0.34551269  0.38145631    -0.24000
H3309       H  0.72231087  0.25481243  0.40563299     0.09500
H3310       H  0.70215447  0.27474917  0.38119502     0.13100
H3311       H  0.72268030  0.30613927  0.44789234     0.11800
H3312       H  0.70189168  0.33659246  0.44083904     0.13000
H3313       H  0.67799612  0.35597569  0.41894609     0.12000
H3314       H  0.69026330  0.29608271  0.35880958     0.09100
H3315       H  0.66862709  0.31736780  0.33732491     0.12400
H3316       H  0.65792438  0.35899848  0.38835390     0.14200
C3317       C  0.63290703  0.33674798  0.33311883    -0.01300
C3318       C  0.63220267  0.33728671  0.31135634    -0.09300
C3319       C  0.61950014  0.32382265  0.30010502    -0.18100
C3320       C  0.60729298  0.30858547  0.30996234     0.04300
C3321       C  0.60935798  0.30655267  0.33165172     0.18400
C3322       C  0.62199622  0.32041374  0.34288235    -0.19600
C3323       C  0.59854793  0.29085471  0.34205681    -0.20800
C3324       C  0.58544817  0.27736461  0.33141004    -0.19400
C3325       C  0.58239666  0.27952012  0.31014071     0.19800
C3326       C  0.59318224  0.29526623  0.29909662     0.02000
C3327       C  0.58885713  0.29739060  0.27779704    -0.14100
C3328       C  0.57422110  0.28468135  0.26803820    -0.11800
C3329       C  0.56371454  0.26913613  0.27894284     0.01500
C3330       C  0.56822818  0.26634695  0.29992725    -0.24000
H3331       H  0.64134755  0.34809543  0.30249787     0.09500
H3332       H  0.61977126  0.32558874  0.28359285     0.13100
H3333       H  0.62287371  0.31895609  0.35950829     0.11800
H3334       H  0.60016591  0.28904124  0.35858580     0.13000
H3335       H  0.57727095  0.26544473  0.33996740     0.12000
H3336       H  0.59604880  0.30914962  0.26838154     0.09100
H3337       H  0.57090910  0.28710943  0.25183830     0.12400
H3338       H  0.56014558  0.25431276  0.30843389     0.14200
C3339       C  0.39177502  0.64062804  0.32729209    -0.01300
C3340       C  0.41175812  0.63341109  0.32170841    -0.09300
C3341       C  0.42432386  0.64433079  0.30795799    -0.18100
C3342       C  0.41790048  0.66356170  0.29976703     0.04300
C3343       C  0.39797001  0.67114536  0.30539463     0.18400
C3344       C  0.38454609  0.65886387  0.31748798    -0.19600
C3345       C  0.39202153  0.69130091  0.29967638    -0.20800
C3346       C  0.40602864  0.70440306  0.28962682    -0.19400
C3347       C  0.42560386  0.69705770  0.28346979     0.19800
C3348       C  0.43108263  0.67603107  0.28713470     0.02000
C3349       C  0.44955633  0.66841565  0.27810311    -0.14100
C3350       C  0.46284899  0.68160718  0.26724372    -0.11800
C3351       C  0.45873552  0.70296199  0.26579064     0.01500
C3352       C  0.43986823  0.71054184  0.27385752    -0.24000
H3353       H  0.41777282  0.61888879  0.32762963     0.09500
H3354       H  0.43949626  0.63787059  0.30484361     0.13100
H3355       H  0.36881941  0.66421256  0.32035659     0.11800
H3356       H  0.37691278  0.69735677  0.30403111     0.13000
H3357       H  0.40144207  0.72028747  0.28644557     0.12000
H3358       H  0.45386339  0.65223131  0.27888751     0.09100
H3359       H  0.47690019  0.67522445  0.26054394     0.12400
H3360       H  0.43632118  0.72696461  0.27276074     0.14200
C3361       C  0.36433545  0.64082462  0.35697648    -0.01300
C3362       C  0.34879490  0.63114267  0.36893722    -0.09300
C3363       C  0.33646355  0.64235286  0.38271361    -0.18100
C3364       C  0.33987685  0.66372106  0.38608047     0.04300
C3365       C  0.35712327  0.67304377  0.37604625     0.18400
C3366       C  0.36919520  0.66162057  0.36194026    -0.19600
C3367       C  0.36239136  0.69369892  0.38032226    -0.20800
C3368       C  0.35081034  0.70532117  0.39428025    -0.19400
C3369       C  0.33332125  0.69678104  0.40391414     0.19800
C3370       C  0.32731026  0.67597498  0.39961627     0.02000
C3371       C  0.30886076  0.66845284  0.40887489    -0.14100
C3372       C  0.29742013  0.68079405  0.42248847    -0.11800
C3373       C  0.30406642  0.70086226  0.42748069     0.01500
C3374       C  0.32186988  0.70887970  0.41794745    -0.24000
H3375       H  0.34578891  0.61469325  0.36719553     0.09500
H3376       H  0.32466388  0.63375682  0.39086186     0.13100
H3377       H  0.38276543  0.66899577  0.35539653     0.11800
H3378       H  0.37566395  0.70089326  0.37291327     0.13000
H3379       H  0.35545340  0.72118400  0.39740792     0.12000
H3380       H  0.30279385  0.65317801  0.40572843     0.09100
H3381       H  0.28353185  0.67449144  0.42956957     0.12400
H3382       H  0.32688633  0.72450967  0.42166075     0.14200
C3383       C  0.36361874  0.61479984  0.32633069    -0.01300
C3384       C  0.34181732  0.61702150  0.32472738    -0.09300
C3385       C  0.33002120  0.60370952  0.31234784    -0.18100
C3386       C  0.33969338  0.58869774  0.29977253     0.04300
C3387       C  0.36170086  0.58860736  0.29885812     0.18400
C3388       C  0.37330689  0.60084655  0.31255578    -0.19600
C3389       C  0.37196541  0.57618721  0.28435777    -0.20800
C3390       C  0.36069243  0.56357383  0.27098239    -0.19400
C3391       C  0.33905895  0.56189448  0.27290681     0.19800
C3392       C  0.32834321  0.57397186  0.28783113     0.02000
C3393       C  0.30699587  0.56994060  0.29104301    -0.14100
C3394       C  0.29681933  0.55436086  0.27999109    -0.11800
C3395       C  0.30716425  0.54323746  0.26451908     0.01500
C3396       C  0.32816209  0.54760908  0.26060886    -0.24000
H3397       H  0.33352288  0.62896894  0.33298691     0.09500
H3398       H  0.31336403  0.60595642  0.31226853     0.13100
H3399       H  0.39006295  0.59927417  0.31261283     0.11800
H3400       H  0.38879086  0.57640494  0.28320505     0.13000
H3401       H  0.36903531  0.55431647  0.25976156     0.12000
H3402       H  0.29814563  0.57782010  0.30280247     0.09100
H3403       H  0.28065565  0.55105410  0.28340309     0.12400
H3404       H  0.33623286  0.53918863  0.24856333     0.14200
C3405       C  0.65800491  0.64183148  0.36325338    -0.01300
C3406       C  0.66168312  0.63535547  0.38374509    -0.09300
C3407       C  0.67347680  0.64712938  0.39739143    -0.18100
C3408       C  0.68153062  0.66657716  0.39165437     0.04300
C3409       C  0.67683353  0.67411670  0.37168948     0.18400
C3410       C  0.66641596  0.66133425  0.35742432    -0.19600
C3411       C  0.68225860  0.69449528  0.36628962    -0.20800
C3412       C  0.69232688  0.70739571  0.38040685    -0.19400
C3413       C  0.69844215  0.69977012  0.39973474     0.19800
C3414       C  0.69367453  0.67897098  0.40528749     0.02000
C3415       C  0.70181992  0.67115406  0.42396054    -0.14100
C3416       C  0.71373128  0.68363345  0.43686100    -0.11800
C3417       C  0.71751311  0.70448571  0.43202095     0.01500
C3418       C  0.70966311  0.71255609  0.41342101    -0.24000
H3419       H  0.65562992  0.62120981  0.39000492     0.09500
H3420       H  0.67523435  0.64096552  0.41275560     0.13100
H3421       H  0.66430960  0.66698178  0.34183218     0.11800
H3422       H  0.67828605  0.70063606  0.35123232     0.13000
H3423       H  0.69593057  0.72320702  0.37594003     0.12000
H3424       H  0.69992949  0.65519963  0.42864049     0.09100
H3425       H  0.72005977  0.67692740  0.45085628     0.12400
H3426       H  0.71261367  0.72864665  0.40946977     0.14200
C3427       C  0.56625073  0.71047747  0.27542748    -0.01300
C3428       C  0.57641006  0.69421185  0.26534289    -0.09300
C3429       C  0.59064320  0.68168041  0.27582297    -0.18100
C3430       C  0.59488075  0.68488381  0.29697672     0.04300
C3431       C  0.58450728  0.70150996  0.30711172     0.18400
C3432       C  0.57072718  0.71443021  0.29616553    -0.19600
C3433       C  0.58743750  0.70469016  0.32824480    -0.20800
C3434       C  0.59958319  0.69103624  0.33975489    -0.19400
C3435       C  0.60976122  0.67438331  0.33025371     0.19800
C3436       C  0.60836909  0.67168841  0.30862049     0.02000
C3437       C  0.62057652  0.65594734  0.29959400    -0.14100
C3438       C  0.63277528  0.64272352  0.31163725    -0.11800
C3439       C  0.63263939  0.64388370  0.33337291     0.01500
C3440       C  0.62123169  0.66033024  0.34232036    -0.24000
H3441       H  0.57307196  0.69105014  0.24927954     0.09500
H3442       H  0.59746904  0.66915284  0.26714774     0.13100
H3443       H  0.56283822  0.72709467  0.30391818     0.11800
H3444       H  0.57970360  0.71739697  0.33605775     0.13000
H3445       H  0.60098814  0.69349384  0.35621566     0.12000
H3446       H  0.62142250  0.65376620  0.28315086     0.09100
H3447       H  0.64214880  0.63162645  0.30340426     0.12400
H3448       H  0.62126566  0.66209657  0.35893441     0.14200
C3449       C  0.65954238  0.61449323  0.33447196    -0.01300
C3450       C  0.68142950  0.61611611  0.33466089    -0.09300
C3451       C  0.69386079  0.60266467  0.32301999    -0.18100
C3452       C  0.68494401  0.58683669  0.31077919     0.04300
C3453       C  0.66293272  0.58497400  0.31080526     0.18400
C3454       C  0.65067164  0.59860375  0.32239066    -0.19600
C3455       C  0.65313244  0.56945837  0.29928419    -0.20800
C3456       C  0.66474749  0.55562321  0.28765505    -0.19400
C3457       C  0.68644110  0.55707103  0.28712000     0.19800
C3458       C  0.69695035  0.57273044  0.29856840     0.02000
C3459       C  0.71894091  0.57354012  0.29716608    -0.14100
C3460       C  0.72991240  0.55931021  0.28502380    -0.11800
C3461       C  0.71935392  0.54390214  0.27399744     0.01500
C3462       C  0.69766313  0.54289032  0.27510617    -0.24000
H3463       H  0.68927161  0.62780030  0.34372380     0.09500
H3464       H  0.71044005  0.60497976  0.32402604     0.13100
H3465       H  0.63387757  0.59694424  0.32197288     0.11800
H3466       H  0.63632785  0.56796685  0.29930876     0.13000
H3467       H  0.65668334  0.54373344  0.27894746     0.12000
H3468       H  0.72807360  0.58498936  0.30520579     0.09100
H3469       H  0.74673058  0.56023491  0.28430307     0.12400
H3470       H  0.68952209  0.53096699  0.26648544     0.14200
C3471       C  0.36164730  0.36629284  0.33521737    -0.01300
C3472       C  0.36314812  0.38808115  0.33757542    -0.09300
C3473       C  0.35072483  0.40167317  0.32627439    -0.18100
C3474       C  0.33762572  0.39438541  0.31054074     0.04300
C3475       C  0.33806000  0.37290472  0.30589798     0.18400
C3476       C  0.34907604  0.35901668  0.31878908    -0.19600
C3477       C  0.32804787  0.36571204  0.28805489    -0.20800
C3478       C  0.31842025  0.37966768  0.27450463    -0.19400
C3479       C  0.31692921  0.40083264  0.27945293     0.19800
C3480       C  0.32528248  0.40804894  0.29832933     0.02000
C3481       C  0.32060406  0.42851228  0.30449551    -0.14100
C3482       C  0.30915698  0.44172314  0.29174618    -0.11800
C3483       C  0.30322150  0.43561777  0.27181000     0.01500
C3484       C  0.30714202  0.41489708  0.26584220    -0.24000
H3485       H  0.37408725  0.39530020  0.34786889     0.09500
H3486       H  0.35268557  0.41807157  0.32917958     0.13100
H3487       H  0.34841261  0.34249701  0.31567686     0.11800
H3488       H  0.32846508  0.34937450  0.28409742     0.13000
H3489       H  0.31166178  0.37380831  0.26035536     0.12000
H3490       H  0.32497242  0.43435463  0.31948372     0.09100
H3491       H  0.30536567  0.45709697  0.29736283     0.12400
H3492       H  0.30252561  0.40963787  0.25066148     0.14200
C3493       C  0.35993896  0.33732567  0.36292381    -0.01300
C3494       C  0.36917484  0.32352743  0.37714469    -0.09300
C3495       C  0.35735368  0.31225195  0.39126912    -0.18100
C3496       C  0.33550095  0.31438150  0.39210858     0.04300
C3497       C  0.32597092  0.32836425  0.37799790     0.18400
C3498       C  0.33808808  0.33965851  0.36376719    -0.19600
C3499       C  0.30434992  0.33122770  0.37833722    -0.20800
C3500       C  0.29199064  0.32055390  0.39240548    -0.19400
C3501       C  0.30088780  0.30670032  0.40653897     0.19800
C3502       C  0.32279447  0.30335572  0.40658360     0.02000
C3503       C  0.33099366  0.28917385  0.42118327    -0.14100
C3504       C  0.31803146  0.27888708  0.43511228    -0.11800
C3505       C  0.29651327  0.28218311  0.43494347     0.01500
C3506       C  0.28800155  0.29615726  0.42065493    -0.24000
H3507       H  0.38592240  0.32154420  0.37736505     0.09500
H3508       H  0.36588545  0.30214141  0.40147012     0.13100
H3509       H  0.33023726  0.35059037  0.35378486     0.11800
H3510       H  0.29691892  0.34186818  0.36765930     0.13000
H3511       H  0.27532677  0.32318834  0.39224588     0.12000
H3512       H  0.34734764  0.28563598  0.42224250     0.09100
H3513       H  0.32483483  0.26809572  0.44604159     0.12400
H3514       H  0.27132671  0.29877395  0.42056492     0.14200
C3515       C  0.38692532  0.33683487  0.33342235    -0.01300
C3516       C  0.40051783  0.34647282  0.31932969    -0.09300
C3517       C  0.41357967  0.33490592  0.30651878    -0.18100
C3518       C  0.41341503  0.31297314  0.30692956     0.04300
C3519       C  0.39855095  0.30312095  0.31981413     0.18400
C3520       C  0.38530625  0.31497064  0.33246626    -0.19600
C3521       C  0.39716366  0.28141157  0.32025805    -0.20800
C3522       C  0.41053095  0.26924345  0.30850928    -0.19400
C3523       C  0.42577147  0.27844048  0.29613103     0.19800
C3524       C  0.42743865  0.30045971  0.29509489     0.02000
C3525       C  0.44341131  0.30893398  0.28266218    -0.14100
C3526       C  0.45724959  0.29609697  0.27201672    -0.11800
C3527       C  0.45563498  0.27447613  0.27331563     0.01500
C3528       C  0.43968409  0.26572183  0.28514059    -0.24000
H3529       H  0.40162333  0.36325146  0.31885390     0.09500
H3530       H  0.42376909  0.34363034  0.29659485     0.13100
H3531       H  0.37392791  0.30680167  0.34162131     0.11800
H3532       H  0.38579716  0.27375415  0.32996408     0.13000
H3533       H  0.40915402  0.25249046  0.30937670     0.12000
H3534       H  0.44591932  0.32540519  0.28120071     0.09100
H3535       H  0.46958179  0.30306521  0.26299203     0.12400
H3536       H  0.43853958  0.24895463  0.28624872     0.14200
C3537       C  0.66517993  0.36458385  0.63256318    -0.01300
C3538       C  0.68692857  0.36527583  0.63007080    -0.09300
C3539       C  0.69912699  0.37903358  0.64152112    -0.18100
C3540       C  0.69010785  0.39261539  0.65609464     0.04300
C3541       C  0.66832289  0.39137116  0.65929515     0.18400
C3542       C  0.65615810  0.37805326  0.64721598    -0.19600
C3543       C  0.65877689  0.40341198  0.67455662    -0.20800
C3544       C  0.67053098  0.41661020  0.68687622    -0.19400
C3545       C  0.69193174  0.41880119  0.68355687     0.19800
C3546       C  0.70191884  0.40730725  0.66768514     0.02000
C3547       C  0.72312731  0.41150114  0.66368034    -0.14100
C3548       C  0.73396806  0.42629540  0.67513102    -0.11800
C3549       C  0.72436402  0.43670180  0.69146891     0.01500
C3550       C  0.70336736  0.43274545  0.69573304    -0.24000
H3551       H  0.69478314  0.35556352  0.61896967     0.09500
H3552       H  0.71566595  0.37847422  0.63882044     0.13100
H3553       H  0.63941685  0.37785210  0.64936444     0.11800
H3554       H  0.64214922  0.40239682  0.67717461     0.13000
H3555       H  0.66275559  0.42551329  0.69876182     0.12000
H3556       H  0.73156406  0.40411088  0.65136115     0.09100
H3557       H  0.75007132  0.42950889  0.67137563     0.12400
H3558       H  0.69581413  0.44105647  0.70818408     0.14200
C3559       C  0.63827277  0.33543474  0.63281119    -0.01300
C3560       C  0.64223391  0.33314186  0.65412658    -0.09300
C3561       C  0.63010320  0.32031739  0.66648530    -0.18100
C3562       C  0.61359498  0.30870459  0.65810165     0.04300
C3563       C  0.61094657  0.30904225  0.63637050     0.18400
C3564       C  0.62361130  0.32178764  0.62398752    -0.19600
C3565       C  0.59532572  0.29705087  0.62719387    -0.20800
C3566       C  0.58188872  0.28521455  0.63922325    -0.19400
C3567       C  0.58361719  0.28523368  0.66073550     0.19800
C3568       C  0.59959578  0.29688033  0.67051321     0.02000
C3569       C  0.60036143  0.29681530  0.69232135    -0.14100
C3570       C  0.58556927  0.28608724  0.70386865    -0.11800
C3571       C  0.56981427  0.27474773  0.69415968     0.01500
C3572       C  0.56911007  0.27411412  0.67257975    -0.24000
H3573       H  0.65490899  0.34104071  0.66171263     0.09500
H3574       H  0.63414080  0.31982034  0.68259509     0.13100
H3575       H  0.62131300  0.32198255  0.60743101     0.11800
H3576       H  0.59326032  0.29709239  0.61061792     0.13000
H3577       H  0.56976403  0.27633764  0.63166544     0.12000
H3578       H  0.61178682  0.30540191  0.70096756     0.09100
H3579       H  0.58621034  0.28691255  0.72053147     0.12400
H3580       H  0.55684064  0.26538687  0.66505218     0.14200
C3581       C  0.66321836  0.33764756  0.60315191    -0.01300
C3582       C  0.66395000  0.34234699  0.58187843    -0.09300
C3583       C  0.67664633  0.33131547  0.56836168    -0.18100
C3584       C  0.68800352  0.31385812  0.57499820     0.04300
C3585       C  0.68545059  0.30727036  0.59565973     0.18400
C3586       C  0.67418583  0.31968437  0.60969708    -0.19600
C3587       C  0.69385337  0.28815720  0.60194066    -0.20800
C3588       C  0.70451887  0.27552378  0.58796102    -0.19400
C3589       C  0.70844169  0.28241157  0.56781707     0.19800
C3590       C  0.70101947  0.30218500  0.56148356     0.02000
C3591       C  0.70737716  0.30978574  0.54210171    -0.14100
C3592       C  0.71968991  0.29778127  0.52905926    -0.11800
C3593       C  0.72547110  0.27743776  0.53435347     0.01500
C3594       C  0.71984957  0.26987726  0.55396828    -0.24000
H3595       H  0.65485637  0.35455762  0.57502467     0.09500
H3596       H  0.67643207  0.33612992  0.55242468     0.13100
H3597       H  0.67354156  0.31503563  0.62573070     0.11800
H3598       H  0.69163622  0.28267150  0.61757409     0.13000
H3599       H  0.71024667  0.26055558  0.59310887     0.12000
H3600       H  0.70361024  0.32528276  0.53694878     0.09100
H3601       H  0.72447330  0.30436711  0.51444901     0.12400
H3602       H  0.72436403  0.25429728  0.55847019     0.14200
C3603       C  0.56889606  0.55034148  0.54586134    -0.01300
C3604       C  0.56587271  0.57185183  0.54638770    -0.09300
C3605       C  0.57786528  0.58442649  0.55921728    -0.18100
C3606       C  0.59321613  0.57582438  0.57233641     0.04300
C3607       C  0.59552200  0.55385742  0.57257932     0.18400
C3608       C  0.58371071  0.54137648  0.55907669    -0.19600
C3609       C  0.60958774  0.54455892  0.58629795    -0.20800
C3610       C  0.62157066  0.55663464  0.59960251    -0.19400
C3611       C  0.62039530  0.57836653  0.59899369     0.19800
C3612       C  0.60632622  0.58823920  0.58519288     0.02000
C3613       C  0.60626090  0.61013502  0.58453885    -0.14100
C3614       C  0.61980398  0.62169080  0.59672453    -0.11800
C3615       C  0.63404010  0.61215538  0.61028099     0.01500
C3616       C  0.63349437  0.59027188  0.61182999    -0.24000
H3617       H  0.55445091  0.57913262  0.53642179     0.09500
H3618       H  0.57457456  0.60081808  0.55860998     0.13100
H3619       H  0.58590951  0.52467959  0.55897518     0.11800
H3620       H  0.61127595  0.52781844  0.58680353     0.13000
H3621       H  0.63224200  0.54892392  0.61006732     0.12000
H3622       H  0.59633308  0.61888073  0.57433502     0.09100
H3623       H  0.61941780  0.63845308  0.59532947     0.12400
H3624       H  0.64318085  0.58222983  0.62287705     0.14200
C3625       C  0.38923312  0.36637803  0.61080115    -0.01300
C3626       C  0.40659699  0.35764379  0.60066199    -0.09300
C3627       C  0.42043318  0.36974514  0.58926161    -0.18100
C3628       C  0.41736606  0.39132224  0.58698969     0.04300
C3629       C  0.40010443  0.40037839  0.59722275     0.18400
C3630       C  0.38698192  0.38819675  0.60966420    -0.19600
C3631       C  0.39566869  0.42152651  0.59457079    -0.20800
C3632       C  0.40760413  0.43369520  0.58139310    -0.19400
C3633       C  0.42482079  0.42525627  0.57120079     0.19800
C3634       C  0.43040314  0.40412353  0.57443389     0.02000
C3635       C  0.44870403  0.39672731  0.56482819    -0.14100
C3636       C  0.46027931  0.40944917  0.55170640    -0.11800
C3637       C  0.45400320  0.42988052  0.54758357     0.01500
C3638       C  0.43640553  0.43778406  0.55764338    -0.24000
H3639       H  0.40928826  0.34105050  0.60123521     0.09500
H3640       H  0.43295170  0.36158047  0.58176610     0.13100
H3641       H  0.37491444  0.39614125  0.61803679     0.11800
H3642       H  0.38245902  0.42857272  0.60223941     0.13000
H3643       H  0.40335352  0.44983962  0.57918872     0.12000
H3644       H  0.45452313  0.38120487  0.56720285     0.09100
H3645       H  0.47399718  0.40305250  0.54438617     0.12400
H3646       H  0.43162461  0.45369177  0.55482937     0.14200
C3647       C  0.56767256  0.43370674  0.42093603    -0.01300
C3648       C  0.55840809  0.41657537  0.41134588    -0.09300
C3649       C  0.56974301  0.40403206  0.39785294    -0.18100
C3650       C  0.59099136  0.40804287  0.39375473     0.04300
C3651       C  0.60020058  0.42570699  0.40321078     0.18400
C3652       C  0.58841930  0.43854422  0.41629871    -0.19600
C3653       C  0.62134451  0.42996820  0.40022016    -0.20800
C3654       C  0.63376303  0.41656353  0.38876335    -0.19400
C3655       C  0.62524319  0.39884716  0.37954618     0.19800
C3656       C  0.60364262  0.39473183  0.38132149     0.02000
C3657       C  0.59567781  0.37746642  0.37057674    -0.14100
C3658       C  0.60872366  0.36420024  0.35950432    -0.11800
C3659       C  0.63054526  0.36705559  0.35898650     0.01500
C3660       C  0.63827668  0.38520648  0.36859575    -0.24000
H3661       H  0.54238648  0.41254547  0.41463447     0.09500
H3662       H  0.56164224  0.39085857  0.39151508     0.13100
H3663       H  0.59575405  0.45173907  0.42369576     0.11800
H3664       H  0.62847640  0.44343525  0.40730705     0.13000
H3665       H  0.65019787  0.42000302  0.38723458     0.12000
H3666       H  0.57928074  0.37398153  0.37008850     0.09100
H3667       H  0.60107673  0.35194169  0.35117800     0.12400
H3668       H  0.65474536  0.38872029  0.36754261     0.14200
C3669       C  0.44897961  0.55037045  0.42572398    -0.01300
C3670       C  0.45560443  0.57060918  0.42131139    -0.09300
C3671       C  0.44433504  0.58339425  0.40800572    -0.18100
C3672       C  0.42592254  0.57633328  0.39838535     0.04300
C3673       C  0.41947531  0.55558906  0.40235633     0.18400
C3674       C  0.43079821  0.54293935  0.41621073    -0.19600
C3675       C  0.40193163  0.54759675  0.39226341    -0.20800
C3676       C  0.39095642  0.55962418  0.37801981    -0.19400
C3677       C  0.39677761  0.58021580  0.37402161     0.19800
C3678       C  0.41394891  0.58902245  0.38467167     0.02000
C3679       C  0.41811379  0.61030732  0.38153646    -0.14100
C3680       C  0.40627349  0.62211801  0.36785412    -0.11800
C3681       C  0.39025019  0.61322707  0.35599308     0.01500
C3682       C  0.38533144  0.59216064  0.35969380    -0.24000
H3683       H  0.46963409  0.57674506  0.42828197     0.09500
H3684       H  0.45072793  0.59859928  0.40522547     0.13100
H3685       H  0.42560828  0.52724308  0.41936622     0.11800
H3686       H  0.39687552  0.53180660  0.39512934     0.13000
H3687       H  0.37769441  0.55282021  0.37021242     0.12000
H3688       H  0.43007525  0.61848310  0.38987119     0.09100
H3689       H  0.40981846  0.63848743  0.36633292     0.12400
H3690       H  0.37217032  0.58508836  0.35200610     0.14200
C3691       C  0.56652264  0.54887279  0.42213555    -0.01300
C3692       C  0.55697855  0.56496917  0.41113993    -0.09300
C3693       C  0.56847993  0.57721508  0.39751916    -0.18100
C3694       C  0.59008222  0.57386449  0.39473619     0.04300
C3695       C  0.59958551  0.55736105  0.40588634     0.18400
C3696       C  0.58774159  0.54492958  0.41916077    -0.19600
C3697       C  0.62097186  0.55366584  0.40414507    -0.20800
C3698       C  0.63327382  0.56630299  0.39182845    -0.19400
C3699       C  0.62445424  0.58285415  0.38087123     0.19800
C3700       C  0.60273442  0.58664933  0.38184355     0.02000
C3701       C  0.59468980  0.60314951  0.36994778    -0.14100
C3702       C  0.60780084  0.61627232  0.35881084    -0.11800
C3703       C  0.62965099  0.61376085  0.35914588     0.01500
C3704       C  0.63739385  0.59589185  0.36926867    -0.24000
H3705       H  0.54057764  0.56825635  0.41323561     0.09500
H3706       H  0.56011336  0.58947990  0.38981011     0.13100
H3707       H  0.59528183  0.53259169  0.42778190     0.11800
H3708       H  0.62830240  0.54113211  0.41264963     0.13000
H3709       H  0.64985725  0.56328197  0.39109660     0.12000
H3710       H  0.57826183  0.60637179  0.36890987     0.09100
H3711       H  0.60026892  0.62828911  0.34997419     0.12400
H3712       H  0.65393835  0.59255913  0.36875112     0.14200
C3713       C  0.38915708  0.36219963  0.36398788    -0.01300
C3714       C  0.41100783  0.35986399  0.36387809    -0.09300
C3715       C  0.42377761  0.37195789  0.37647978    -0.18100
C3716       C  0.41529179  0.38681480  0.39005840     0.04300
C3717       C  0.39328268  0.38805884  0.39148345     0.18400
C3718       C  0.38062399  0.37519079  0.37932296    -0.19600
C3719       C  0.38396652  0.40266230  0.40449962    -0.20800
C3720       C  0.39607084  0.41651638  0.41571127    -0.19400
C3721       C  0.41780500  0.41574443  0.41461402     0.19800
C3722       C  0.42778807  0.40057491  0.40213784     0.02000
C3723       C  0.44981129  0.39989960  0.40232930    -0.14100
C3724       C  0.46133147  0.41365103  0.41443890    -0.11800
C3725       C  0.45137962  0.42877337  0.42636354     0.01500
C3726       C  0.42962117  0.42988115  0.42621086    -0.24000
H3727       H  0.41869024  0.34867904  0.35414113     0.09500
H3728       H  0.44029184  0.36953371  0.37491814     0.13100
H3729       H  0.36383978  0.37646045  0.38060038     0.11800
H3730       H  0.36716969  0.40370781  0.40564931     0.13000
H3731       H  0.38836747  0.42788361  0.42536749     0.12000
H3732       H  0.45860257  0.38872455  0.39358316     0.09100
H3733       H  0.47815179  0.41240387  0.41451924     0.12400
H3734       H  0.42181593  0.44130334  0.43573667     0.14200
C3735       C  0.57343389  0.43117314  0.54323107    -0.01300
C3736       C  0.59489322  0.43482246  0.54406535    -0.09300
C3737       C  0.60770615  0.42311534  0.55702210    -0.18100
C3738       C  0.59933733  0.40750528  0.56993096     0.04300
C3739       C  0.57750946  0.40392525  0.56903352     0.18400
C3740       C  0.56486399  0.41556003  0.55559963    -0.19600
C3741       C  0.56841815  0.38876059  0.58156542    -0.20800
C3742       C  0.58057901  0.37681107  0.59478063    -0.19400
C3743       C  0.60219279  0.37951847  0.59559960     0.19800
C3744       C  0.61183059  0.39510762  0.58343790     0.02000
C3745       C  0.63355644  0.39753714  0.58531185    -0.14100
C3746       C  0.64534128  0.38387998  0.59724455    -0.11800
C3747       C  0.63619458  0.36702167  0.60783502     0.01500
C3748       C  0.61422278  0.36631267  0.60816449    -0.24000
H3749       H  0.60190449  0.44661328  0.53439666     0.09500
H3750       H  0.62408129  0.42664123  0.55650374     0.13100
H3751       H  0.54825746  0.41262823  0.55495644     0.11800
H3752       H  0.55178118  0.38603095  0.58105813     0.13000
H3753       H  0.57305762  0.36504191  0.60410500     0.12000
H3754       H  0.64203938  0.40954112  0.57738728     0.09100
H3755       H  0.66207329  0.38592289  0.59740144     0.12400
H3756       H  0.60604982  0.35542047  0.61779805     0.14200
C3757       C  0.45742122  0.69305950  0.70699751    -0.01300
C3758       C  0.45864666  0.67140937  0.70584216    -0.09300
C3759       C  0.44451460  0.66017477  0.69388883    -0.18100
C3760       C  0.42858482  0.67034677  0.68261243     0.04300
C3761       C  0.42698788  0.69229341  0.68446836     0.18400
C3762       C  0.44138608  0.70340516  0.69652138    -0.19600
C3763       C  0.41119904  0.70303931  0.67405505    -0.20800
C3764       C  0.39706416  0.69250133  0.66160568    -0.19400
C3765       C  0.39861659  0.67098613  0.65886365     0.19800
C3766       C  0.41438797  0.65961892  0.66935731     0.02000
C3767       C  0.41547683  0.63805395  0.66584426    -0.14100
C3768       C  0.40218145  0.62840506  0.65186006    -0.11800
C3769       C  0.38714433  0.63963237  0.64054397     0.01500
C3770       C  0.38477422  0.66088290  0.64528345    -0.24000
H3771       H  0.47088008  0.66319152  0.71398614     0.09500
H3772       H  0.44658749  0.64357872  0.69371147     0.13100
H3773       H  0.44043632  0.72019449  0.69742956     0.11800
H3774       H  0.40982531  0.71975269  0.67547017     0.13000
H3775       H  0.38511826  0.70133355  0.65367420     0.12000
H3776       H  0.42681982  0.62820681  0.67322575     0.09100
H3777       H  0.40434515  0.61197162  0.64924751     0.12400
H3778       H  0.37239712  0.66984766  0.63829370     0.14200
C3779       C  0.36049077  0.64236909  0.61019456    -0.01300
C3780       C  0.37013307  0.65910228  0.59999795    -0.09300
C3781       C  0.35947596  0.67135029  0.58571117    -0.18100
C3782       C  0.33872484  0.66687968  0.58011278     0.04300
C3783       C  0.32898069  0.64963894  0.58974855     0.18400
C3784       C  0.33991796  0.63744377  0.60419277    -0.19600
C3785       C  0.30845405  0.64439350  0.58462445    -0.20800
C3786       C  0.29733529  0.65601260  0.57024125    -0.19400
C3787       C  0.30655796  0.67297365  0.56033338     0.19800
C3788       C  0.32747215  0.67857027  0.56497023     0.02000
C3789       C  0.33628115  0.69542566  0.55399549    -0.14100
C3790       C  0.32477719  0.70626834  0.53920580    -0.11800
C3791       C  0.30415930  0.70085885  0.53501901     0.01500
C3792       C  0.29507786  0.68423983  0.54559869    -0.24000
H3793       H  0.38632680  0.66265780  0.60298904     0.09500
H3794       H  0.36810267  0.68403256  0.57909643     0.13100
H3795       H  0.33246846  0.62356598  0.60994918     0.11800
H3796       H  0.30090147  0.63122868  0.59185187     0.13000
H3797       H  0.28145831  0.65157602  0.56670095     0.12000
H3798       H  0.35206857  0.70051895  0.55631736     0.09100
H3799       H  0.33200015  0.71898216  0.53094282     0.12400
H3800       H  0.27913540  0.67995889  0.54211550     0.14200
C3801       C  0.36105407  0.61214113  0.63691782    -0.01300
C3802       C  0.36841844  0.59176548  0.64037153    -0.09300
C3803       C  0.35794843  0.57796811  0.65316379    -0.18100
C3804       C  0.33929349  0.58371830  0.66296635     0.04300
C3805       C  0.33146010  0.60402099  0.65940771     0.18400
C3806       C  0.34305671  0.61836356  0.64772748    -0.19600
C3807       C  0.31189111  0.60963531  0.66713101    -0.20800
C3808       C  0.29975243  0.59522081  0.67773921    -0.19400
C3809       C  0.30749992  0.57533862  0.68209511     0.19800
C3810       C  0.32785188  0.56974781  0.67566512     0.02000
C3811       C  0.33599414  0.55049524  0.68238208    -0.14100
C3812       C  0.32388997  0.53678099  0.69385680    -0.11800
C3813       C  0.30313597  0.54146081  0.69850948     0.01500
C3814       C  0.29510494  0.56095191  0.69282184    -0.24000
H3815       H  0.38278102  0.58633792  0.63358438     0.09500
H3816       H  0.36452256  0.56261655  0.65453773     0.13100
H3817       H  0.33758359  0.63422959  0.64633670     0.11800
H3818       H  0.30561919  0.62500702  0.66429519     0.13000
H3819       H  0.28435466  0.59975407  0.68284961     0.12000
H3820       H  0.35181609  0.54581168  0.67937133     0.09100
H3821       H  0.33062494  0.52214787  0.69875210     0.12400
H3822       H  0.27917559  0.56487029  0.69672370     0.14200
C3823       C  0.38800845  0.61650309  0.60829465    -0.01300
C3824       C  0.40923570  0.62121751  0.60564182    -0.09300
C3825       C  0.42178813  0.60947786  0.59253022    -0.18100
C3826       C  0.41358133  0.59257492  0.58128487     0.04300
C3827       C  0.39184148  0.58888021  0.58260538     0.18400
C3828       C  0.37929155  0.60122739  0.59536667    -0.19600
C3829       C  0.38281062  0.57246154  0.57168109    -0.20800
C3830       C  0.39503865  0.55918104  0.55992138    -0.19400
C3831       C  0.41656668  0.56216689  0.55854585     0.19800
C3832       C  0.42613020  0.57911955  0.56892945     0.02000
C3833       C  0.44786132  0.58170487  0.56663100    -0.14100
C3834       C  0.45951530  0.56811362  0.55450579    -0.11800
C3835       C  0.45006813  0.55133965  0.54449112     0.01500
C3836       C  0.42858335  0.54836370  0.54669582    -0.24000
H3837       H  0.41640466  0.63402913  0.61372295     0.09500
H3838       H  0.43793465  0.61388700  0.59178606     0.13100
H3839       H  0.36274180  0.59808407  0.59626362     0.11800
H3840       H  0.36621233  0.56960655  0.57257230     0.13000
H3841       H  0.38760537  0.54642390  0.55190490     0.12000
H3842       H  0.45633180  0.59414671  0.57386997     0.09100
H3843       H  0.47607945  0.57080001  0.55292879     0.12400
H3844       H  0.42109385  0.53558030  0.53875714     0.14200
loop_ 
_geom_bond_atom_site_label_1 
_geom_bond_atom_site_label_2 
_geom_bond_distance 
_geom_bond_site_symmetry_2 
_ccdc_geom_bond_type 
C1         C3769   1.558       .  S
C1         C3779   1.555       .  S
C1         C3801   1.555       .  S
C1         C3823   1.553       .  S
N2            N3   1.320       .  A
N2            N8   1.318       .  A
N2          Mn31   2.206       .  S
N3           C10   1.353       .  A
N4            N6   1.316       .  A
N4            N5   1.321       .  A
N4          Mn20   2.210       .  S
N5           C11   1.355       .  A
N6            N7   1.319       .  A
N6          Mn31   2.195       .  S
N7           C11   1.351       .  A
N8            N9   1.322       .  A
N8          Mn20   2.214       .  S
N9           C10   1.355       .  A
C10        C3637   1.482       .  S
C11        C3725   1.476       .  S
N12          N18   1.317       .  A
N12          N13   1.319       .  A
N12         Mn42   2.207       .  S
N13          C21   1.353       .  A
N14          N15   1.323       .  A
N14          N16   1.317       .  A
N14         Mn20   2.213       .  S
N15          C22   1.355       .  A
N16          N17   1.319       .  A
N16         Mn42   2.199       .  S
N17          C22   1.352       .  A
N18          N19   1.325       .  A
N18         Mn20   2.217       .  S
N19          C21   1.357       .  A
Mn20        Cl44   2.562       .  S
C21        C3669   1.486       .  S
C22        C3835   1.479       .  S
N23          N24   1.320       .  A
N23          N29   1.315       .  A
N23         Mn31   2.206       .  S
N24          C32   1.354       .  A
N25          N27   1.316       .  A
N25          N26   1.319       .  A
N25         Mn43   2.193       .  S
N26          C33   1.352       .  A
N27          N28   1.322       .  A
N27         Mn31   2.209       .  S
N28          C33   1.354       .  A
N29          N30   1.322       .  A
N29         Mn43   2.204       .  S
N30          C32   1.355       .  A
Mn31        Cl44   2.538       .  S
C32        C3647   1.482       .  S
C33        C3735   1.477       .  S
N34          N35   1.320       .  A
N34          N40   1.316       .  A
N34         Mn42   2.210       .  S
N35          C45   1.354       .  A
N36          N37   1.318       .  A
N36          N38   1.315       .  A
N36         Mn43   2.191       .  S
N37          C46   1.351       .  A
N38          N39   1.321       .  A
N38         Mn42   2.200       .  S
N39          C46   1.354       .  A
N40          N41   1.323       .  A
N40         Mn43   2.209       .  S
N41          C45   1.355       .  A
Mn42        Cl44   2.537       .  S
Mn43        Cl44   2.557       .  S
C45        C3603   1.481       .  S
C46        C3691   1.474       .  S
C47        C3537   1.552       .  S
C47        C3559   1.561       .  S
C47        C3581   1.567       .  S
C47        C3747   1.566       .  S
C48        C3471   1.566       .  S
C48        C3493   1.558       .  S
C48        C3515   1.561       .  S
C48        C3713   1.563       .  S
C49        C3405   1.569       .  S
C49        C3439   1.563       .  S
C49        C3449   1.555       .  S
C49        C3703   1.567       .  S
C50        C3339   1.560       .  S
C50        C3361   1.560       .  S
C50        C3383   1.556       .  S
C50        C3681   1.553       .  S
C51        C3285   1.561       .  S
C51        C3307   1.570       .  S
C51        C3317   1.569       .  S
C51        C3659   1.571       .  S
C52        C3207   1.557       .  S
C52        C3229   1.560       .  S
C52        C3251   1.558       .  S
C52        C3625   1.565       .  S
C53        C3141   1.559       .  S
C53        C3163   1.555       .  S
C53        C3185   1.561       .  S
C53        C3615   1.556       .  S
N54          C59   1.355       .  A
N54          C58   1.353       .  A
N54          H86   1.036       .  S
N55          C62   1.352       .  A
N55          C63   1.355       .  A
N56          C61   1.354       .  A
N56          C60   1.355       .  A
N56          H87   1.041       .  S
N57          C64   1.353       .  A
N57          C65   1.352       .  A
C58          C66   1.390       .  A
C58          C74   1.421   1_556  A
C59          C75   1.417       .  A
C59          C67   1.385       .  A
C60          C68   1.386       .  A
C60          C77   1.418   1_556  A
C61          C76   1.420       .  A
C61          C69   1.388       .  A
C62          C74   1.418       .  A
C62          C70   1.387       .  A
C63          C77   1.418       .  A
C63          C71   1.386       .  A
C64          C72   1.384       .  A
C64          C75   1.414       .  A
C65          C73   1.387       .  A
C65          C76   1.418       .  A
C66          C67   1.374       .  A
C66          H78   1.081   1_556  S
C67          H79   1.082       .  S
C68          C69   1.376       .  A
C68          H80   1.082   1_556  S
C69          H81   1.082       .  S
C70          C71   1.373       .  A
C70          H82   1.081       .  S
C71          H83   1.081       .  S
C72          C73   1.375       .  A
C72          H84   1.082       .  S
C73          H85   1.081       .  S
C74        C3087   1.486       .  S
C75        C3119   1.490       .  S
C76        C3053   1.503       .  S
C77        C3097   1.508       .  S
N88          C93   1.355   1_565  A
N88          C92   1.354       .  A
N88         H120   1.040       .  S
N89          C96   1.353       .  A
N89          C97   1.353       .  A
N90          C95   1.356   1_565  A
N90          C94   1.356       .  A
N90         H121   1.040       .  S
N91          C98   1.352       .  A
N91          C99   1.352       .  A
C92         C100   1.387       .  A
C92         C108   1.420       .  A
C93         C109   1.418       .  A
C93         C101   1.388   1_545  A
C94         C102   1.386       .  A
C94         C111   1.421       .  A
C95         C110   1.420       .  A
C95         C103   1.388   1_545  A
C96         C108   1.417       .  A
C96         C104   1.387       .  A
C97         C111   1.415       .  A
C97         C105   1.385       .  A
C98         C106   1.387       .  A
C98         C109   1.415       .  A
C99         C107   1.387       .  A
C99         C110   1.415       .  A
C100        C101   1.375       .  A
C100        H112   1.082       .  S
C101        H113   1.080   1_565  S
C102        C103   1.373       .  A
C102        H114   1.082       .  S
C103        H115   1.079   1_565  S
C104        C105   1.375       .  A
C104        H116   1.082       .  S
C105        H117   1.082       .  S
C106        C107   1.372       .  A
C106        H118   1.082       .  S
C107        H119   1.082       .  S
C108       C2977   1.503       .  S
C109       C3021   1.492       .  S
C110       C2987   1.494       .  S
C111       C3031   1.505       .  S
N122        C127   1.352   1_455  A
N122        C126   1.352       .  A
N122        H154   1.037       .  S
N123        C130   1.350       .  A
N123        C131   1.354       .  A
N124        C129   1.352       .  A
N124        C128   1.353       .  A
N124        H155   1.038       .  S
N125        C132   1.350       .  A
N125        C133   1.351       .  A
C126        C134   1.388       .  A
C126        C142   1.414       .  A
C127        C143   1.413       .  A
C127        C135   1.387   1_655  A
C128        C136   1.388       .  A
C128        C145   1.419       .  A
C129        C144   1.413   1_455  A
C129        C137   1.385       .  A
C130        C142   1.413       .  A
C130        C138   1.386       .  A
C131        C145   1.415       .  A
C131        C139   1.386       .  A
C132        C140   1.386       .  A
C132        C143   1.410       .  A
C133        C141   1.386       .  A
C133        C144   1.412       .  A
C134        C135   1.375       .  A
C134        H146   1.082       .  S
C135        H147   1.083   1_455  S
C136        C137   1.376       .  A
C136        H148   1.082       .  S
C137        H149   1.083   1_455  S
C138        C139   1.372       .  A
C138        H150   1.082       .  S
C139        H151   1.081       .  S
C140        C141   1.374       .  A
C140        H152   1.082       .  S
C141        H153   1.082       .  S
C142       C2877   1.484       .  S
C143       C2933   1.480       .  S
C144       C2899   1.487       .  S
C145       C2955   1.501       .  S
N156        C161   1.355       .  A
N156        C160   1.359       .  A
N156        H188   1.026       .  S
N157        C164   1.354       .  A
N157        C165   1.352       .  A
N158        C163   1.355       .  A
N158        C162   1.354       .  A
N158        H189   1.031       .  S
N159        C166   1.352       .  A
N159        C167   1.354       .  A
C160        C168   1.387       .  A
C160        C176   1.423       .  A
C161        C177   1.420       .  A
C161        C169   1.386       .  A
C162        C170   1.386       .  A
C162        C179   1.414       .  A
C163        C178   1.420       .  A
C163        C171   1.387       .  A
C164        C176   1.418       .  A
C164        C172   1.387       .  A
C165        C179   1.415       .  A
C165        C173   1.386       .  A
C166        C174   1.385       .  A
C166        C177   1.415       .  A
C167        C175   1.387       .  A
C167        C178   1.418       .  A
C168        C169   1.374       .  A
C168        H180   1.080       .  S
C169        H181   1.082       .  S
C170        C171   1.374       .  A
C170        H182   1.081       .  S
C171        H183   1.082       .  S
C172        C173   1.373       .  A
C172        H184   1.082       .  S
C173        H185   1.082       .  S
C174        C175   1.374       .  A
C174        H186   1.082       .  S
C175        H187   1.081       .  S
C176       C3329   1.498       .  S
C177       C3527   1.490       .  S
C178       C2855   1.503       .  S
C179       C2833   1.486       .  S
N190        C195   1.358       .  A
N190        C194   1.358       .  A
N190        H222   1.036       .  S
N191        C198   1.353       .  A
N191        C199   1.354       .  A
N192        C197   1.354       .  A
N192        C196   1.355       .  A
N192        H223   1.040       .  S
N193        C200   1.353       .  A
N193        C201   1.354       .  A
C194        C202   1.386       .  A
C194        C210   1.425       .  A
C195        C211   1.426       .  A
C195        C203   1.389       .  A
C196        C204   1.391       .  A
C196        C213   1.424       .  A
C197        C212   1.411       .  A
C197        C205   1.383       .  A
C198        C210   1.417       .  A
C198        C206   1.386       .  A
C199        C213   1.420       .  A
C199        C207   1.387       .  A
C200        C208   1.389       .  A
C200        C211   1.421       .  A
C201        C209   1.384       .  A
C201        C212   1.413       .  A
C202        C203   1.375       .  A
C202        H214   1.082       .  S
C203        H215   1.081       .  S
C204        C205   1.374       .  A
C204        H216   1.082       .  S
C205        H217   1.083       .  S
C206        C207   1.375       .  A
C206        H218   1.081       .  S
C207        H219   1.082       .  S
C208        C209   1.372       .  A
C208        H220   1.081       .  S
C209        H221   1.082       .  S
C210       C2789   1.497       .  S
C211       C2811   1.496       .  S
C212       C3505   1.492       .  S
C213       C3263   1.506       .  S
N224        C229   1.357       .  A
N224        C228   1.358       .  A
N224        H256   1.039       .  S
N225        C232   1.353       .  A
N225        C233   1.351       .  A
N226        C231   1.353       .  A
N226        C230   1.351       .  A
N226        H257   1.038       .  S
N227        C234   1.352       .  A
N227        C235   1.354       .  A
C228        C236   1.386       .  A
C228        C244   1.425       .  A
C229        C245   1.425       .  A
C229        C237   1.389       .  A
C230        C238   1.388       .  A
C230        C247   1.413       .  A
C231        C246   1.413       .  A
C231        C239   1.387       .  A
C232        C244   1.417       .  A
C232        C240   1.388       .  A
C233        C247   1.410       .  A
C233        C241   1.384       .  A
C234        C242   1.389       .  A
C234        C245   1.418       .  A
C235        C243   1.384       .  A
C235        C246   1.414       .  A
C236        C237   1.374       .  A
C236        H248   1.082       .  S
C237        H249   1.079       .  S
C238        C239   1.375       .  A
C238        H250   1.082       .  S
C239        H251   1.082       .  S
C240        C241   1.373       .  A
C240        H252   1.081       .  S
C241        H253   1.082       .  S
C242        C243   1.371       .  A
C242        H254   1.081       .  S
C243        H255   1.082       .  S
C244       C3483   1.510       .  S
C245       C3395   1.494       .  S
C246       C2779   1.491       .  S
C247       C2745   1.481       .  S
N258        C263   1.354       .  A
N258        C262   1.354   1_556  A
N258        H290   1.044       .  S
N259        C266   1.346       .  A
N259        C267   1.347       .  A
N260        C265   1.352       .  A
N260        C264   1.356   1_556  A
N260        H291   1.040       .  S
N261        C268   1.359       .  A
N261        C269   1.356       .  A
C262        C270   1.382   1_554  A
C262        C278   1.406       .  A
C263        C279   1.419       .  A
C263        C271   1.388       .  A
C264        C272   1.385   1_554  A
C264        C281   1.412       .  A
C265        C280   1.417       .  A
C265        C273   1.389       .  A
C266        C278   1.402       .  A
C266        C274   1.385       .  A
C267        C281   1.407       .  A
C267        C275   1.387       .  A
C268        C276   1.387       .  A
C268        C279   1.429       .  A
C269        C277   1.385       .  A
C269        C280   1.423       .  A
C270        C271   1.374       .  A
C270        H282   1.082   1_556  S
C271        H283   1.082       .  S
C272        C273   1.369       .  A
C272        H284   1.082   1_556  S
C273        H285   1.082       .  S
C274        C275   1.376       .  A
C274        H286   1.082       .  S
C275        H287   1.082       .  S
C276        C277   1.365       .  A
C276        H288   1.078       .  S
C277        H289   1.079       .  S
C278       C2657   1.478       .  S
C279       C2679   1.538       .  S
C280       C2735   1.498       .  S
C281       C2701   1.484       .  S
N292        C297   1.355   1_556  A
N292        C296   1.355       .  A
N292        H324   1.036       .  S
N293        C300   1.350       .  A
N293        C301   1.352       .  A
N294        C299   1.354   1_556  A
N294        C298   1.355       .  A
N294        H325   1.040       .  S
N295        C302   1.354       .  A
N295        C303   1.354       .  A
C296        C304   1.385       .  A
C296        C312   1.416       .  A
C297        C313   1.424       .  A
C297        C305   1.391   1_554  A
C298        C306   1.386       .  A
C298        C315   1.419       .  A
C299        C314   1.420       .  A
C299        C307   1.388   1_554  A
C300        C312   1.409       .  A
C300        C308   1.384       .  A
C301        C315   1.415       .  A
C301        C309   1.388       .  A
C302        C310   1.387       .  A
C302        C313   1.419       .  A
C303        C311   1.385       .  A
C303        C314   1.419       .  A
C304        C305   1.375       .  A
C304        H316   1.082       .  S
C305        H317   1.081   1_556  S
C306        C307   1.377       .  A
C306        H318   1.082       .  S
C307        H319   1.082   1_556  S
C308        C309   1.372       .  A
C308        H320   1.082       .  S
C309        H321   1.081       .  S
C310        C311   1.370       .  A
C310        H322   1.080       .  S
C311        H323   1.081       .  S
C312       C2647   1.483       .  S
C313       C2613   1.495       .  S
C314       C2569   1.504       .  S
C315       C2591   1.499       .  S
N326        C331   1.356   1_455  A
N326        C330   1.354       .  A
N326        H358   1.039       .  S
N327        C334   1.351       .  A
N327        C335   1.354       .  A
N328        C333   1.353   1_455  A
N328        C332   1.355       .  A
N328        H359   1.042       .  S
N329        C336   1.351       .  A
N329        C337   1.350       .  A
C330        C338   1.389       .  A
C330        C346   1.420       .  A
C331        C347   1.418       .  A
C331        C339   1.385   1_655  A
C332        C340   1.388       .  A
C332        C349   1.423       .  A
C333        C348   1.413       .  A
C333        C341   1.386   1_655  A
C334        C346   1.414       .  A
C334        C342   1.386       .  A
C335        C349   1.420       .  A
C335        C343   1.386       .  A
C336        C344   1.386       .  A
C336        C347   1.412       .  A
C337        C345   1.387       .  A
C337        C348   1.410       .  A
C338        C339   1.376       .  A
C338        H350   1.081       .  S
C339        H351   1.082   1_455  S
C340        C341   1.377       .  A
C340        H352   1.082       .  S
C341        H353   1.080   1_455  S
C342        C343   1.374       .  A
C342        H354   1.080       .  S
C343        H355   1.081       .  S
C344        C345   1.372       .  A
C344        H356   1.082       .  S
C345        H357   1.082       .  S
C346       C2547   1.489       .  S
C347       C2525   1.492       .  S
C348       C2515   1.485       .  S
C349       C2481   1.520       .  S
N360        C365   1.353       .  A
N360        C364   1.354       .  A
N360        H392   1.039       .  S
N361        C368   1.350       .  A
N361        C369   1.350       .  A
N362        C367   1.355       .  A
N362        C366   1.353       .  A
N362        H393   1.040       .  S
N363        C370   1.352       .  A
N363        C371   1.352       .  A
C364        C372   1.387       .  A
C364        C380   1.415       .  A
C365        C381   1.414       .  A
C365        C373   1.387       .  A
C366        C374   1.385       .  A
C366        C383   1.413       .  A
C367        C382   1.420       .  A
C367        C375   1.388       .  A
C368        C380   1.411       .  A
C368        C376   1.387       .  A
C369        C383   1.410       .  A
C369        C377   1.386       .  A
C370        C378   1.385       .  A
C370        C381   1.412       .  A
C371        C379   1.387       .  A
C371        C382   1.416       .  A
C372        C373   1.375       .  A
C372        H384   1.082       .  S
C373        H385   1.082       .  S
C374        C375   1.375       .  A
C374        H386   1.083       .  S
C375        H387   1.082       .  S
C376        C377   1.375       .  A
C376        H388   1.082       .  S
C377        H389   1.082       .  S
C378        C379   1.376       .  A
C378        H390   1.082       .  S
C379        H391   1.082       .  S
C380       C3461   1.487       .  S
C381       C3273   1.488       .  S
C382       C2459   1.502       .  S
C383       C2437   1.485       .  S
N394        C399   1.355       .  A
N394        C398   1.354       .  A
N394        H426   1.037       .  S
N395        C402   1.352       .  A
N395        C403   1.351       .  A
N396        C401   1.354       .  A
N396        C400   1.354       .  A
N396        H427   1.036       .  S
N397        C404   1.353       .  A
N397        C405   1.354       .  A
C398        C406   1.387       .  A
C398        C414   1.420       .  A
C399        C415   1.419       .  A
C399        C407   1.388       .  A
C400        C408   1.386       .  A
C400        C417   1.417       .  A
C401        C416   1.418       .  A
C401        C409   1.389       .  A
C402        C414   1.414       .  A
C402        C410   1.387       .  A
C403        C417   1.412       .  A
C403        C411   1.385       .  A
C404        C412   1.387       .  A
C404        C415   1.418       .  A
C405        C413   1.386       .  A
C405        C416   1.417       .  A
C406        C407   1.373       .  A
C406        H418   1.082       .  S
C407        H419   1.080       .  S
C408        C409   1.373       .  A
C408        H420   1.082       .  S
C409        H421   1.080       .  S
C410        C411   1.372       .  A
C410        H422   1.082       .  S
C411        H423   1.082       .  S
C412        C413   1.371       .  A
C412        H424   1.082       .  S
C413        H425   1.082       .  S
C414       C3813   1.494       .  S
C415       C3241   1.490       .  S
C416       C2427   1.488       .  S
C417       C2405   1.490       .  S
C428       C2305   1.555       .  S
C428       C2327   1.558       .  S
C428       C2349   1.551       .  S
C428       C2371   1.566       .  S
N429        N430   1.321       .  A
N429        N435   1.317       .  A
N429       Mn458   2.205   1_655  S
N430        C437   1.351       .  A
N431        N433   1.316       .  A
N431        N432   1.323       .  A
N431       Mn447   2.207   1_554  S
N432        C438   1.355       .  A
N433        N434   1.317       .  A
N433       Mn458   2.197   1_654  S
N434        C438   1.352       .  A
N435        N436   1.322       .  A
N435       Mn447   2.212       .  S
N436        C437   1.353       .  A
C437       C2383   1.470       .  S
C438       C2195   1.477       .  S
N439        N445   1.316       .  A
N439        N440   1.321       .  A
N439       Mn469   2.204   1_654  S
N440        C448   1.352       .  A
N441        N442   1.322       .  A
N441        N443   1.317       .  A
N441       Mn447   2.216       .  S
N442        C449   1.356       .  A
N443        N444   1.319       .  A
N443       Mn469   2.198   1_655  S
N444        C449   1.352       .  A
N445        N446   1.321       .  A
N445       Mn447   2.204   1_554  S
N446        C448   1.352       .  A
Mn447      Cl471   2.551   1_655  S
C448       C2283   1.468       .  S
C449       C2229   1.481       .  S
N450        N451   1.322       .  A
N450        N456   1.315       .  A
N450       Mn458   2.205   1_554  S
N451        C459   1.354       .  A
N452        N454   1.317       .  A
N452        N453   1.322       .  A
N452       Mn470   2.214       .  S
N453        C460   1.355       .  A
N454        N455   1.319       .  A
N454       Mn458   2.199       .  S
N455        C460   1.352       .  A
N456        N457   1.320       .  A
N456       Mn470   2.203   1_554  S
N457        C459   1.353       .  A
Mn458      Cl471   2.546       .  S
C459       C2185   1.479       .  S
C460       C2251   1.479       .  S
N461        N462   1.321       .  A
N461        N467   1.316       .  A
N461       Mn469   2.205       .  S
N462        C472   1.354       .  A
N463        N464   1.320       .  A
N463        N465   1.316       .  A
N463       Mn470   2.199   1_554  S
N464        C473   1.353       .  A
N465        N466   1.319       .  A
N465       Mn469   2.199   1_554  S
N466        C473   1.353       .  A
N467        N468   1.321       .  A
N467       Mn470   2.204       .  S
N468        C472   1.354       .  A
Mn469      Cl471   2.544       .  S
Mn470      Cl471   2.550       .  S
C472       C2273   1.481       .  S
C473       C2163   1.475       .  S
C474       C2295   1.553       .  S
C474       C2471   1.560       .  S
C474       C2625   1.556       .  S
C474       C2921   1.554       .  S
C475       C2261   1.569       .  S
C475       C2415   1.559       .  S
C475       C2559   1.569       .  S
C475       C3065   1.564       .  S
C476       C2129   1.560       .  S
C476       C2239   1.560       .  S
C476       C2393   1.558       .  S
C476       C2691   1.559       .  S
C477       C2107   1.555       .  S
C477       C2217   1.553       .  S
C477       C2537   1.555       .  S
C477       C2635   1.557       .  S
C478       C2063   1.564       .  S
C478       C2085   1.560       .  S
C478       C2207   1.560       .  S
C478       C2449   1.558       .  S
N479        C484   1.355       .  A
N479        C483   1.354       .  A
N479        H511   1.034       .  S
N480        C487   1.354       .  A
N480        C488   1.355       .  A
N481        C486   1.355       .  A
N481        C485   1.355       .  A
N481        H512   1.036       .  S
N482        C489   1.352       .  A
N482        C490   1.351       .  A
C483        C491   1.390       .  A
C483        C499   1.422       .  A
C484        C500   1.419       .  A
C484        C492   1.386       .  A
C485        C493   1.388       .  A
C485        C502   1.422       .  A
C486        C501   1.418       .  A
C486        C494   1.387       .  A
C487        C499   1.421       .  A
C487        C495   1.388       .  A
C488        C502   1.419       .  A
C488        C496   1.385       .  A
C489        C497   1.386       .  A
C489        C500   1.414       .  A
C490        C498   1.387       .  A
C490        C501   1.414       .  A
C491        C492   1.373       .  A
C491        H503   1.081       .  S
C492        H504   1.082       .  S
C493        C494   1.374       .  A
C493        H505   1.082       .  S
C494        H506   1.081       .  S
C495        C496   1.370       .  A
C495        H507   1.081       .  S
C496        H508   1.081       .  S
C497        C498   1.370       .  A
C497        H509   1.082       .  S
C498        H510   1.082       .  S
C499       C3549   1.490       .  S
C500       C3175   1.490       .  S
C501       C2361   1.485       .  S
C502       C2119   1.501       .  S
C513       C2041   1.557       .  S
C513       C2173   1.556       .  S
C513       C2669   1.556       .  S
C513       C2767   1.554       .  S
C514       C2151   1.564       .  S
C514       C2757   1.552       .  S
C514       C2889   1.557       .  S
C514       C3109   1.560       .  S
N515        C520   1.353       .  A
N515        C519   1.355       .  A
N515        H547   1.041       .  S
N516        C523   1.353       .  A
N516        C524   1.354       .  A
N517        C522   1.354       .  A
N517        C521   1.352       .  A
N517        H548   1.042       .  S
N518        C525   1.348       .  A
N518        C526   1.351       .  A
C519        C527   1.388       .  A
C519        C535   1.419   1_565  A
C520        C536   1.412       .  A
C520        C528   1.386       .  A
C521        C529   1.388       .  A
C521        C538   1.418   1_565  A
C522        C537   1.415       .  A
C522        C530   1.385       .  A
C523        C535   1.417       .  A
C523        C531   1.385       .  A
C524        C538   1.420       .  A
C524        C532   1.387       .  A
C525        C533   1.384       .  A
C525        C536   1.406       .  A
C526        C534   1.388       .  A
C526        C537   1.413       .  A
C527        C528   1.376       .  A
C527        H539   1.082   1_565  S
C528        H540   1.082       .  S
C529        C530   1.377       .  A
C529        H541   1.082   1_565  S
C530        H542   1.082       .  S
C531        C532   1.378       .  A
C531        H543   1.082       .  S
C532        H544   1.081       .  S
C533        C534   1.375       .  A
C533        H545   1.082       .  S
C534        H546   1.081       .  S
C535       C1997   1.504       .  S
C536       C2019   1.478       .  S
C537       C1953   1.502       .  S
C538       C1975   1.506       .  S
N549        C554   1.358       .  A
N549        C553   1.357       .  A
N549        H581   1.037       .  S
N550        C557   1.350       .  A
N550        C558   1.352       .  A
N551        C556   1.354       .  A
N551        C555   1.358       .  A
N551        H582   1.033       .  S
N552        C559   1.354       .  A
N552        C560   1.352       .  A
C553        C561   1.387       .  A
C553        C569   1.421       .  A
C554        C570   1.424       .  A
C554        C562   1.387       .  A
C555        C563   1.388       .  A
C555        C572   1.422       .  A
C556        C571   1.422       .  A
C556        C564   1.388       .  A
C557        C569   1.415       .  A
C557        C565   1.387       .  A
C558        C572   1.417       .  A
C558        C566   1.386       .  A
C559        C567   1.385       .  A
C559        C570   1.419       .  A
C560        C568   1.388       .  A
C560        C571   1.420       .  A
C561        C562   1.371       .  A
C561        H573   1.081       .  S
C562        H574   1.082       .  S
C563        C564   1.372       .  A
C563        H575   1.082       .  S
C564        H576   1.082       .  S
C565        C566   1.372       .  A
C565        H577   1.082       .  S
C566        H578   1.082       .  S
C567        C568   1.368       .  A
C567        H579   1.081       .  S
C568        H580   1.080       .  S
C569       C3427   1.486       .  S
C570       C3351   1.504       .  S
C571       C1909   1.486       .  S
C572       C1931   1.492       .  S
N583        C588   1.354       .  A
N583        C587   1.354       .  A
N583        H615   1.036       .  S
N584        C591   1.352       .  A
N584        C592   1.351       .  A
N585        C590   1.353       .  A
N585        C589   1.353       .  A
N585        H616   1.036       .  S
N586        C593   1.352       .  A
N586        C594   1.353       .  A
C587        C595   1.386       .  A
C587        C603   1.416       .  A
C588        C604   1.419       .  A
C588        C596   1.389       .  A
C589        C597   1.389       .  A
C589        C606   1.417       .  A
C590        C605   1.416       .  A
C590        C598   1.386       .  A
C591        C603   1.414       .  A
C591        C599   1.385       .  A
C592        C606   1.417       .  A
C592        C600   1.388       .  A
C593        C601   1.386       .  A
C593        C604   1.416       .  A
C594        C602   1.386       .  A
C594        C605   1.417       .  A
C595        C596   1.373       .  A
C595        H607   1.082       .  S
C596        H608   1.081       .  S
C597        C598   1.374       .  A
C597        H609   1.081       .  S
C598        H610   1.082       .  S
C599        C600   1.370       .  A
C599        H611   1.082       .  S
C600        H612   1.081       .  S
C601        C602   1.370       .  A
C601        H613   1.081       .  S
C602        H614   1.081       .  S
C603       C3571   1.490       .  S
C604       C3219   1.486       .  S
C605       C1865   1.495       .  S
C606       C1887   1.482       .  S
C617       C1821   1.556       .  S
C617       C1855   1.568       .  S
C617       C1899   1.559       .  S
C617       C2603   1.565       .  S
N618        N619   1.323       .  A
N618        N624   1.316       .  A
N618       Mn647   2.207       .  S
N619        C626   1.355       .  A
N620        N622   1.317       .  A
N620        N621   1.320       .  A
N620       Mn636   2.205   1_554  S
N621        C627   1.352       .  A
N622        N623   1.323       .  A
N622       Mn647   2.213   1_554  S
N623        C627   1.355       .  A
N624        N625   1.319       .  A
N624       Mn636   2.205       .  S
N625        C626   1.352       .  A
C626       C1745   1.479       .  S
C627       C1811   1.479       .  S
N628        N634   1.316       .  A
N628        N629   1.321       .  A
N628       Mn658   2.206   1_554  S
N629        C637   1.353       .  A
N630        N631   1.320       .  A
N630        N632   1.315       .  A
N630       Mn636   2.204   1_545  S
N631        C638   1.353       .  A
N632        N633   1.323       .  A
N632       Mn658   2.211       .  S
N633        C638   1.356       .  A
N634        N635   1.323       .  A
N634       Mn636   2.216   1_544  S
N635        C637   1.356       .  A
Mn636      Cl660   2.542       .  S
C637       C1667   1.484       .  S
C638       C1843   1.483       .  S
N639        N640   1.323       .  A
N639        N645   1.317       .  A
N639       Mn647   2.218   1_554  S
N640        C648   1.356       .  A
N641        N643   1.316       .  A
N641        N642   1.320       .  A
N641       Mn659   2.200       .  S
N642        C649   1.352       .  A
N643        N644   1.322       .  A
N643       Mn647   2.211       .  S
N644        C649   1.354       .  A
N645        N646   1.317       .  A
N645       Mn659   2.188   1_554  S
N646        C648   1.349       .  A
Mn647      Cl660   2.555       .  S
C648       C1711   1.473       .  S
C649       C1777   1.475       .  S
N650        N651   1.320       .  A
N650        N656   1.316       .  A
N650       Mn658   2.199       .  S
N651        C661   1.353       .  A
N652        N653   1.323       .  A
N652        N654   1.316       .  A
N652       Mn659   2.205   1_544  S
N653        C662   1.354       .  A
N654        N655   1.319       .  A
N654       Mn658   2.208   1_554  S
N655        C662   1.353       .  A
N656        N657   1.320       .  A
N656       Mn659   2.199   1_545  S
N657        C661   1.353       .  A
Mn658      Cl660   2.549   1_545  S
Mn659      Cl660   2.547       .  S
C661       C1755   1.477       .  S
C662       C1701   1.478       .  S
C663       C1635   1.555       .  S
C663       C1645   1.555       .  S
C663       C1799   1.554       .  S
C663       C1943   1.557       .  S
C664       C1601   1.550       .  S
C664       C1789   1.550       .  S
C664       C2031   1.551       .  S
C664       C2723   1.546       .  S
C665       C1767   1.550       .  S
C665       C1877   1.553       .  S
C665       C2009   1.555       .  S
C665       C3131   1.557       .  S
C666       C1535   1.551       .  S
C666       C1569   1.563       .  S
C666       C1591   1.559       .  S
C666       C1733   1.562       .  S
C667       C1723   1.560       .  S
C667       C1921   1.555       .  S
C667       C2713   1.558       .  S
C667       C2965   1.564       .  S
N668        C673   1.353       .  A
N668        C672   1.354       .  A
N668        H700   1.037       .  S
N669        C676   1.352       .  A
N669        C677   1.351       .  A
N670        C675   1.354       .  A
N670        C674   1.355       .  A
N670        H701   1.038       .  S
N671        C678   1.353       .  A
N671        C679   1.353       .  A
C672        C680   1.387       .  A
C672        C688   1.415       .  A
C673        C689   1.414       .  A
C673        C681   1.387       .  A
C674        C682   1.387       .  A
C674        C691   1.419       .  A
C675        C690   1.419       .  A
C675        C683   1.388       .  A
C676        C688   1.412       .  A
C676        C684   1.385       .  A
C677        C691   1.414       .  A
C677        C685   1.387       .  A
C678        C686   1.385       .  A
C678        C689   1.414       .  A
C679        C687   1.387       .  A
C679        C690   1.418       .  A
C680        C681   1.374       .  A
C680        H692   1.082       .  S
C681        H693   1.082       .  S
C682        C683   1.374       .  A
C682        H694   1.082       .  S
C683        H695   1.082       .  S
C684        C685   1.373       .  A
C684        H696   1.082       .  S
C685        H697   1.082       .  S
C686        C687   1.375       .  A
C686        H698   1.082       .  S
C687        H699   1.082       .  S
C688       C3757   1.490       .  S
C689       C3153   1.486       .  S
C690       C1579   1.493       .  S
C691       C1613   1.492       .  S
C702       C1689   1.557       .  S
C702       C2867   1.563       .  S
C702       C3009   1.560       .  S
C702       C3075   1.557       .  S
C703       C1525   1.555       .  S
C703       C1679   1.558       .  S
C703       C2581   1.554       .  S
C703       C2845   1.552       .  S
N704        C709   1.355       .  A
N704        C708   1.353   1_455  A
N704        H736   1.040       .  S
N705        C712   1.353       .  A
N705        C713   1.354       .  A
N706        C711   1.353       .  A
N706        C710   1.355   1_455  A
N706        H737   1.040       .  S
N707        C714   1.353       .  A
N707        C715   1.351       .  A
C708        C716   1.386       .  A
C708        C724   1.414       .  A
C709        C725   1.420       .  A
C709        C717   1.388       .  A
C710        C718   1.389   1_655  A
C710        C727   1.421       .  A
C711        C726   1.412       .  A
C711        C719   1.385       .  A
C712        C724   1.413       .  A
C712        C720   1.384       .  A
C713        C727   1.421       .  A
C713        C721   1.388       .  A
C714        C722   1.387       .  A
C714        C725   1.416       .  A
C715        C723   1.385       .  A
C715        C726   1.410       .  A
C716        C717   1.375   1_655  A
C716        H728   1.082       .  S
C717        H729   1.082       .  S
C718        C719   1.376       .  A
C718        H730   1.082   1_455  S
C719        H731   1.083       .  S
C720        C721   1.377       .  A
C720        H732   1.082       .  S
C721        H733   1.081       .  S
C722        C723   1.376       .  A
C722        H734   1.082       .  S
C723        H735   1.082       .  S
C724       C2097   1.490       .  S
C725       C2053   1.503       .  S
C726       C1481   1.484       .  S
C727       C1491   1.508       .  S
N738        C743   1.355       .  A
N738        C742   1.352   1_565  A
N738        H770   1.038       .  S
N739        C746   1.354       .  A
N739        C747   1.355       .  A
N740        C745   1.357       .  A
N740        C744   1.358   1_565  A
N740        H771   1.037       .  S
N741        C748   1.353       .  A
N741        C749   1.351       .  A
C742        C750   1.388       .  A
C742        C758   1.417       .  A
C743        C759   1.417       .  A
C743        C751   1.387       .  A
C744        C752   1.389       .  A
C744        C761   1.426       .  A
C745        C760   1.421       .  A
C745        C753   1.385       .  A
C746        C758   1.417       .  A
C746        C754   1.385       .  A
C747        C761   1.421       .  A
C747        C755   1.388       .  A
C748        C756   1.386       .  A
C748        C759   1.414       .  A
C749        C757   1.386       .  A
C749        C760   1.414       .  A
C750        C751   1.375   1_545  A
C750        H762   1.083       .  S
C751        H763   1.082       .  S
C752        C753   1.373   1_545  A
C752        H764   1.080       .  S
C753        H765   1.082       .  S
C754        C755   1.374       .  A
C754        H766   1.082       .  S
C755        H767   1.081       .  S
C756        C757   1.373       .  A
C756        H768   1.082       .  S
C757        H769   1.082       .  S
C758       C1513   1.491       .  S
C759       C1657   1.494       .  S
C760       C1425   1.494       .  S
C761       C1459   1.499       .  S
N772        C777   1.352       .  A
N772        C776   1.352       .  A
N772        H804   1.041       .  S
N773        C780   1.352       .  A
N773        C781   1.353       .  A
N774        C779   1.356       .  A
N774        C778   1.356       .  A
N774        H805   1.041       .  S
N775        C782   1.351       .  A
N775        C783   1.351       .  A
C776        C784   1.387       .  A
C776        C792   1.412       .  A
C777        C793   1.412       .  A
C777        C785   1.387       .  A
C778        C786   1.387       .  A
C778        C795   1.421       .  A
C779        C794   1.420       .  A
C779        C787   1.386       .  A
C780        C792   1.413       .  A
C780        C788   1.385       .  A
C781        C795   1.417       .  A
C781        C789   1.387       .  A
C782        C790   1.385       .  A
C782        C793   1.411       .  A
C783        C791   1.387       .  A
C783        C794   1.416       .  A
C784        C785   1.375       .  A
C784        H796   1.082       .  S
C785        H797   1.083       .  S
C786        C787   1.376       .  A
C786        H798   1.082       .  S
C787        H799   1.082       .  S
C788        C789   1.377       .  A
C788        H800   1.082       .  S
C789        H801   1.081       .  S
C790        C791   1.376       .  A
C790        H802   1.082       .  S
C791        H803   1.082       .  S
C792       C1415   1.488       .  S
C793       C1393   1.487       .  S
C794       C3295   1.502       .  S
C795       C3593   1.505       .  S
N806        C811   1.354       .  A
N806        C810   1.356       .  A
N806        H838   1.036       .  S
N807        C814   1.354       .  A
N807        C815   1.353       .  A
N808        C813   1.355       .  A
N808        C812   1.353       .  A
N808        H839   1.034       .  S
N809        C816   1.352       .  A
N809        C817   1.354       .  A
C810        C818   1.387       .  A
C810        C826   1.420       .  A
C811        C827   1.420       .  A
C811        C819   1.388       .  A
C812        C820   1.387       .  A
C812        C829   1.419       .  A
C813        C828   1.422       .  A
C813        C821   1.389       .  A
C814        C826   1.418       .  A
C814        C822   1.386       .  A
C815        C829   1.417       .  A
C815        C823   1.386       .  A
C816        C824   1.387       .  A
C816        C827   1.418       .  A
C817        C825   1.387       .  A
C817        C828   1.419       .  A
C818        C819   1.374       .  A
C818        H830   1.082       .  S
C819        H831   1.082       .  S
C820        C821   1.374       .  A
C820        H832   1.082       .  S
C821        H833   1.082       .  S
C822        C823   1.373       .  A
C822        H834   1.082       .  S
C823        H835   1.082       .  S
C824        C825   1.373       .  A
C824        H836   1.082       .  S
C825        H837   1.082       .  S
C826       C1359   1.495       .  S
C827       C1349   1.488       .  S
C828       C3373   1.491       .  S
C829       C3791   1.486       .  S
C840       C1327   1.580       .  S
C840       C1381   1.553       .  S
C840       C1447   1.587       .  S
C840       C2911   1.569       .  S
N841        N842   1.321       .  A
N841        N847   1.315       .  A
N841       Mn870   2.198   1_645  S
N842        C849   1.354       .  A
N843        N845   1.316       .  A
N843        N844   1.318       .  A
N843       Mn859   2.201       .  S
N844        C850   1.353       .  A
N845        N846   1.323       .  A
N845       Mn870   2.210   1_655  S
N846        C850   1.354       .  A
N847        N848   1.317       .  A
N847       Mn859   2.191   1_545  S
N848        C849   1.351       .  A
C849       C1239   1.474       .  S
C850       C1205   1.477       .  S
N851        N857   1.315       .  A
N851        N852   1.321       .  A
N851       Mn881   2.206   1_655  S
N852        C860   1.352       .  A
N853        N854   1.319       .  A
N853        N855   1.315       .  A
N853       Mn859   2.199   1_545  S
N854        C861   1.352       .  A
N855        N856   1.322       .  A
N855       Mn881   2.206   1_645  S
N856        C861   1.354       .  A
N857        N858   1.322       .  A
N857       Mn859   2.205       .  S
N858        C860   1.353       .  A
Mn859      Cl883   2.547   1_655  S
C860       C1293   1.471       .  S
C861       C1315   1.475       .  S
N862        N863   1.319       .  A
N862        N868   1.316       .  A
N862       Mn870   2.195       .  S
N863        C871   1.351       .  A
N864        N866   1.317       .  A
N864        N865   1.321       .  A
N864       Mn882   2.211   1_545  S
N865        C872   1.354       .  A
N866        N867   1.322       .  A
N866       Mn870   2.210   1_545  S
N867        C872   1.354       .  A
N868        N869   1.324       .  A
N868       Mn882   2.222       .  S
N869        C871   1.357       .  A
Mn870      Cl883   2.545       .  S
C871       C1249   1.483       .  S
C872       C1161   1.478       .  S
N873        N874   1.320       .  A
N873        N879   1.317       .  A
N873       Mn881   2.197   1_545  S
N874        C884   1.351       .  A
N875        N876   1.322       .  A
N875        N877   1.316       .  A
N875       Mn882   2.213       .  S
N876        C885   1.356       .  A
N877        N878   1.317       .  A
N877       Mn881   2.191       .  S
N878        C885   1.351       .  A
N879        N880   1.325       .  A
N879       Mn882   2.228   1_545  S
N880        C884   1.358       .  A
Mn881      Cl883   2.543       .  S
Mn882      Cl883   2.554       .  S
C884       C1183   1.483       .  S
C885       C1283   1.476       .  S
C886       C1139   1.559       .  S
C886       C1305   1.566       .  S
C886       C1437   1.563       .  S
C886       C1503   1.563       .  S
C887       C1271   1.566       .  S
C887       C1337   1.560       .  S
C887       C1469   1.556       .  S
C887       C3043   1.564       .  S
C888       C1117   1.567       .  S
C888       C1261   1.561       .  S
C888       C1371   1.562       .  S
C888       C1965   1.563       .  S
C889       C1107   1.573       .  S
C889       C1227   1.573       .  S
C889       C1403   1.559       .  S
C889       C2503   1.566       .  S
C890       C1041   1.562       .  S
C890       C1051   1.558       .  S
C890       C1085   1.561       .  S
C890       C1217   1.554       .  S
N891        C896   1.357       .  A
N891        C895   1.353       .  A
N891        H923   1.037       .  S
N892        C899   1.351       .  A
N892        C900   1.355       .  A
N893        C898   1.354       .  A
N893        C897   1.358       .  A
N893        H924   1.040       .  S
N894        C901   1.354       .  A
N894        C902   1.351       .  A
C895        C903   1.387       .  A
C895        C911   1.417       .  A
C896        C912   1.421       .  A
C896        C904   1.388       .  A
C897        C905   1.386       .  A
C897        C914   1.420       .  A
C898        C913   1.420       .  A
C898        C906   1.388       .  A
C899        C911   1.413       .  A
C899        C907   1.385       .  A
C900        C914   1.419       .  A
C900        C908   1.387       .  A
C901        C909   1.385       .  A
C901        C912   1.416       .  A
C902        C910   1.388       .  A
C902        C913   1.417       .  A
C903        C904   1.372       .  A
C903        H915   1.082       .  S
C904        H916   1.081       .  S
C905        C906   1.376       .  A
C905        H917   1.082       .  S
C906        H918   1.082       .  S
C907        C908   1.375       .  A
C907        H919   1.082       .  S
C908        H920   1.081       .  S
C909        C910   1.376       .  A
C909        H921   1.082       .  S
C910        H922   1.081       .  S
C911       C1073   1.483       .  S
C912       C1151   1.496       .  S
C913       C3417   1.495       .  S
C914       C3197   1.510       .  S
C925       C1195   1.565       .  S
C925       C2823   1.563       .  S
C925       C2943   1.560       .  S
C925       C2999   1.557       .  S
C926       C1173   1.564       .  S
C926       C1987   1.560       .  S
C926       C2493   1.559       .  S
C926       C2801   1.551       .  S
N927        C932   1.356       .  A
N927        C931   1.358   1_455  A
N927        H959   1.039       .  S
N928        C935   1.353       .  A
N928        C936   1.354       .  A
N929        C934   1.356       .  A
N929        C933   1.354   1_455  A
N929        H960   1.039       .  S
N930        C937   1.353       .  A
N930        C938   1.354       .  A
C931        C939   1.388       .  A
C931        C947   1.422       .  A
C932        C948   1.420       .  A
C932        C940   1.386       .  A
C933        C941   1.389       .  A
C933        C950   1.422       .  A
C934        C949   1.415       .  A
C934        C942   1.385       .  A
C935        C947   1.415       .  A
C935        C943   1.386       .  A
C936        C950   1.418       .  A
C936        C944   1.387       .  A
C937        C945   1.387       .  A
C937        C948   1.418       .  A
C938        C946   1.385       .  A
C938        C949   1.416       .  A
C939        C940   1.373   1_655  A
C939        H951   1.081       .  S
C940        H952   1.082       .  S
C941        C942   1.376   1_655  A
C941        H953   1.082       .  S
C942        H954   1.082       .  S
C943        C944   1.372       .  A
C943        H955   1.081       .  S
C944        H956   1.081       .  S
C945        C946   1.377       .  A
C945        H957   1.082       .  S
C946        H958   1.082       .  S
C947       C1029   1.495       .  S
C948       C1129   1.495       .  S
C949       C2141   1.494       .  S
C950       C2339   1.503       .  S
N961        C966   1.354       .  A
N961        C965   1.354   1_565  A
N961        H993   1.032       .  S
N962        C969   1.352       .  A
N962        C970   1.352       .  A
N963        C968   1.358       .  A
N963        C967   1.360   1_565  A
N963        H994   1.032       .  S
N964        C971   1.351       .  A
N964        C972   1.351       .  A
C965        C973   1.389       .  A
C965        C981   1.420       .  A
C966        C982   1.417       .  A
C966        C974   1.387       .  A
C967        C975   1.390   1_545  A
C967        C984   1.431       .  A
C968        C983   1.427       .  A
C968        C976   1.385       .  A
C969        C981   1.416       .  A
C969        C977   1.384       .  A
C970        C984   1.422       .  A
C970        C978   1.389       .  A
C971        C979   1.385       .  A
C971        C982   1.414       .  A
C972        C980   1.388       .  A
C972        C983   1.419       .  A
C973        C974   1.370   1_545  A
C973        H985   1.082       .  S
C974        H986   1.082       .  S
C975        C976   1.367       .  A
C975        H987   1.079   1_565  S
C976        H988   1.082       .  S
C977        C978   1.370       .  A
C977        H989   1.082       .  S
C978        H990   1.082       .  S
C979        C980   1.369       .  A
C979        H991   1.082       .  S
C980        H992   1.081       .  S
C981       C1833   1.487       .  S
C982       C1547   1.483       .  S
C983       C1063   1.499       .  S
C984       C1095   1.499       .  S
N995       C1000   1.354   1_556  A
N995        C999   1.349       .  A
N995       H1027   1.042       .  S
N996       C1003   1.349       .  A
N996       C1004   1.353       .  A
N997       C1002   1.352   1_556  A
N997       C1001   1.357       .  A
N997       H1028   1.042       .  S
N998       C1005   1.354       .  A
N998       C1006   1.351       .  A
C999       C1007   1.386       .  A
C999       C1015   1.409       .  A
C1000      C1016   1.417       .  A
C1000      C1008   1.388   1_554  A
C1001      C1009   1.386       .  A
C1001      C1018   1.420       .  A
C1002      C1017   1.417       .  A
C1002      C1010   1.387   1_554  A
C1003      C1015   1.410       .  A
C1003      C1011   1.385       .  A
C1004      C1018   1.415       .  A
C1004      C1012   1.386       .  A
C1005      C1013   1.386       .  A
C1005      C1016   1.418       .  A
C1006      C1014   1.387       .  A
C1006      C1017   1.416       .  A
C1007      C1008   1.377       .  A
C1007      H1019   1.083       .  S
C1008      H1020   1.082   1_556  S
C1009      C1010   1.377       .  A
C1009      H1021   1.082       .  S
C1010      H1022   1.082   1_556  S
C1011      C1012   1.375       .  A
C1011      H1023   1.082       .  S
C1012      H1024   1.081       .  S
C1013      C1014   1.378       .  A
C1013      H1025   1.082       .  S
C1014      H1026   1.082       .  S
C1015      C2317   1.480       .  S
C1016      C2075   1.507       .  S
C1017      C1623   1.499       .  S
C1018      C1557   1.513       .  S
C1029      C1030   1.401       .  A
C1029      C1034   1.402       .  A
C1030      C1031   1.401       .  A
C1030      H1043   1.083       .  S
C1031      C1032   1.415       .  A
C1031      H1044   1.079       .  S
C1032      C1038   1.430       .  A
C1032      C1033   1.421       .  A
C1033      C1035   1.400       .  A
C1033      C1034   1.405       .  A
C1034      H1045   1.085       .  S
C1035      C1036   1.392       .  A
C1035      H1046   1.084       .  S
C1036      C1037   1.400       .  A
C1036      H1047   1.084       .  S
C1037      C1038   1.417       .  A
C1037      C1042   1.406       .  A
C1038      C1039   1.410       .  A
C1039      C1040   1.399       .  A
C1039      H1048   1.079       .  S
C1040      C1041   1.414       .  A
C1040      H1049   1.078       .  S
C1041      C1042   1.413       .  A
C1042      H1050   1.082       .  S
C1051      C1052   1.413       .  A
C1051      C1056   1.412       .  A
C1052      C1053   1.391       .  A
C1052      H1065   1.081       .  S
C1053      C1054   1.407       .  A
C1053      H1066   1.079       .  S
C1054      C1060   1.422       .  A
C1054      C1055   1.417       .  A
C1055      C1057   1.402       .  A
C1055      C1056   1.409       .  A
C1056      H1067   1.084       .  S
C1057      C1058   1.397       .  A
C1057      H1068   1.084       .  S
C1058      C1059   1.402       .  A
C1058      H1069   1.084       .  S
C1059      C1060   1.418       .  A
C1059      C1064   1.408       .  A
C1060      C1061   1.411       .  A
C1061      C1062   1.392       .  A
C1061      H1070   1.079       .  S
C1062      C1063   1.401       .  A
C1062      H1071   1.084       .  S
C1063      C1064   1.407       .  A
C1064      H1072   1.084       .  S
C1073      C1074   1.397       .  A
C1073      C1078   1.398       .  A
C1074      C1075   1.397       .  A
C1074      H1087   1.084       .  S
C1075      C1076   1.416       .  A
C1075      H1088   1.077       .  S
C1076      C1082   1.430       .  A
C1076      C1077   1.423       .  A
C1077      C1079   1.399       .  A
C1077      C1078   1.404       .  A
C1078      H1089   1.085       .  S
C1079      C1080   1.390       .  A
C1079      H1090   1.084       .  S
C1080      C1081   1.399       .  A
C1080      H1091   1.084       .  S
C1081      C1082   1.419       .  A
C1081      C1086   1.405       .  A
C1082      C1083   1.411       .  A
C1083      C1084   1.396       .  A
C1083      H1092   1.078       .  S
C1084      C1085   1.412       .  A
C1084      H1093   1.079       .  S
C1085      C1086   1.411       .  A
C1086      H1094   1.085       .  S
C1095      C1096   1.403       .  A
C1095      C1100   1.403       .  A
C1096      C1097   1.398       .  A
C1096      H1109   1.083       .  S
C1097      C1098   1.412       .  A
C1097      H1110   1.080       .  S
C1098      C1104   1.425       .  A
C1098      C1099   1.419       .  A
C1099      C1101   1.399       .  A
C1099      C1100   1.403       .  A
C1100      H1111   1.085       .  S
C1101      C1102   1.391       .  A
C1101      H1112   1.084       .  S
C1102      C1103   1.401       .  A
C1102      H1113   1.084       .  S
C1103      C1104   1.414       .  A
C1103      C1108   1.401       .  A
C1104      C1105   1.408       .  A
C1105      C1106   1.399       .  A
C1105      H1114   1.080       .  S
C1106      C1107   1.415       .  A
C1106      H1115   1.071       .  S
C1107      C1108   1.417       .  A
C1108      H1116   1.081       .  S
C1117      C1118   1.413       .  A
C1117      C1122   1.415       .  A
C1118      C1119   1.395       .  A
C1118      H1131   1.077       .  S
C1119      C1120   1.409       .  A
C1119      H1132   1.078       .  S
C1120      C1126   1.431       .  A
C1120      C1121   1.419       .  A
C1121      C1123   1.401       .  A
C1121      C1122   1.411       .  A
C1122      H1133   1.084       .  S
C1123      C1124   1.395       .  A
C1123      H1134   1.084       .  S
C1124      C1125   1.402       .  A
C1124      H1135   1.084       .  S
C1125      C1126   1.421       .  A
C1125      C1130   1.410       .  A
C1126      C1127   1.415       .  A
C1127      C1128   1.397       .  A
C1127      H1136   1.078       .  S
C1128      C1129   1.399       .  A
C1128      H1137   1.083       .  S
C1129      C1130   1.405       .  A
C1130      H1138   1.084       .  S
C1139      C1140   1.410       .  A
C1139      C1144   1.413       .  A
C1140      C1141   1.399       .  A
C1140      H1153   1.083       .  S
C1141      C1142   1.413       .  A
C1141      H1154   1.078       .  S
C1142      C1148   1.434       .  A
C1142      C1143   1.420       .  A
C1143      C1145   1.401       .  A
C1143      C1144   1.409       .  A
C1144      H1155   1.081       .  S
C1145      C1146   1.392       .  A
C1145      H1156   1.084       .  S
C1146      C1147   1.400       .  A
C1146      H1157   1.084       .  S
C1147      C1148   1.424       .  A
C1147      C1152   1.410       .  A
C1148      C1149   1.415       .  A
C1149      C1150   1.399       .  A
C1149      H1158   1.078       .  S
C1150      C1151   1.401       .  A
C1150      H1159   1.083       .  S
C1151      C1152   1.402       .  A
C1152      H1160   1.084       .  S
C1161      C1162   1.399       .  A
C1161      C1166   1.401       .  A
C1162      C1163   1.399       .  A
C1162      H1175   1.084       .  S
C1163      C1164   1.416       .  A
C1163      H1176   1.078       .  S
C1164      C1170   1.430       .  A
C1164      C1165   1.422       .  A
C1165      C1167   1.401       .  A
C1165      C1166   1.407       .  A
C1166      H1177   1.085       .  S
C1167      C1168   1.392       .  A
C1167      H1178   1.084       .  S
C1168      C1169   1.400       .  A
C1168      H1179   1.084       .  S
C1169      C1170   1.420       .  A
C1169      C1174   1.408       .  A
C1170      C1171   1.410       .  A
C1171      C1172   1.397       .  A
C1171      H1180   1.079       .  S
C1172      C1173   1.412       .  A
C1172      H1181   1.081       .  S
C1173      C1174   1.411       .  A
C1174      H1182   1.084       .  S
C1183      C1184   1.402       .  A
C1183      C1188   1.400       .  A
C1184      C1185   1.400       .  A
C1184      H1197   1.083       .  S
C1185      C1186   1.415       .  A
C1185      H1198   1.078       .  S
C1186      C1192   1.435       .  A
C1186      C1187   1.424       .  A
C1187      C1189   1.399       .  A
C1187      C1188   1.409       .  A
C1188      H1199   1.084       .  S
C1189      C1190   1.391       .  A
C1189      H1200   1.084       .  S
C1190      C1191   1.401       .  A
C1190      H1201   1.084       .  S
C1191      C1192   1.420       .  A
C1191      C1196   1.408       .  A
C1192      C1193   1.412       .  A
C1193      C1194   1.399       .  A
C1193      H1202   1.078       .  S
C1194      C1195   1.413       .  A
C1194      H1203   1.083       .  S
C1195      C1196   1.413       .  A
C1196      H1204   1.080       .  S
C1205      C1206   1.398       .  A
C1205      C1210   1.403       .  A
C1206      C1207   1.392       .  A
C1206      H1219   1.083       .  S
C1207      C1208   1.413       .  A
C1207      H1220   1.077       .  S
C1208      C1214   1.428       .  A
C1208      C1209   1.422       .  A
C1209      C1211   1.401       .  A
C1209      C1210   1.410       .  A
C1210      H1221   1.084       .  S
C1211      C1212   1.394       .  A
C1211      H1222   1.084       .  S
C1212      C1213   1.402       .  A
C1212      H1223   1.084       .  S
C1213      C1214   1.420       .  A
C1213      C1218   1.411       .  A
C1214      C1215   1.409       .  A
C1215      C1216   1.389       .  A
C1215      H1224   1.077       .  S
C1216      C1217   1.409       .  A
C1216      H1225   1.083       .  S
C1217      C1218   1.412       .  A
C1218      H1226   1.080       .  S
C1227      C1228   1.418       .  A
C1227      C1232   1.413       .  A
C1228      C1229   1.392       .  A
C1228      H1241   1.073       .  S
C1229      C1230   1.405       .  A
C1229      H1242   1.077       .  S
C1230      C1236   1.428       .  A
C1230      C1231   1.418       .  A
C1231      C1233   1.399       .  A
C1231      C1232   1.404       .  A
C1232      H1243   1.083       .  S
C1233      C1234   1.388       .  A
C1233      H1244   1.084       .  S
C1234      C1235   1.399       .  A
C1234      H1245   1.084       .  S
C1235      C1236   1.420       .  A
C1235      C1240   1.400       .  A
C1236      C1237   1.417       .  A
C1237      C1238   1.397       .  A
C1237      H1246   1.077       .  S
C1238      C1239   1.398       .  A
C1238      H1247   1.083       .  S
C1239      C1240   1.400       .  A
C1240      H1248   1.084       .  S
C1249      C1250   1.402       .  A
C1249      C1254   1.400       .  A
C1250      C1251   1.398       .  A
C1250      H1263   1.083       .  S
C1251      C1252   1.414       .  A
C1251      H1264   1.078       .  S
C1252      C1258   1.432       .  A
C1252      C1253   1.423       .  A
C1253      C1255   1.399       .  A
C1253      C1254   1.407       .  A
C1254      H1265   1.084       .  S
C1255      C1256   1.390       .  A
C1255      H1266   1.084       .  S
C1256      C1257   1.401       .  A
C1256      H1267   1.084       .  S
C1257      C1258   1.419       .  A
C1257      C1262   1.406       .  A
C1258      C1259   1.413       .  A
C1259      C1260   1.397       .  A
C1259      H1268   1.077       .  S
C1260      C1261   1.410       .  A
C1260      H1269   1.083       .  S
C1261      C1262   1.413       .  A
C1262      H1270   1.079       .  S
C1271      C1272   1.412       .  A
C1271      C1276   1.414       .  A
C1272      C1273   1.396       .  A
C1272      H1285   1.083       .  S
C1273      C1274   1.411       .  A
C1273      H1286   1.078       .  S
C1274      C1280   1.428       .  A
C1274      C1275   1.418       .  A
C1275      C1277   1.401       .  A
C1275      C1276   1.404       .  A
C1276      H1287   1.076       .  S
C1277      C1278   1.389       .  A
C1277      H1288   1.084       .  S
C1278      C1279   1.398       .  A
C1278      H1289   1.084       .  S
C1279      C1280   1.423       .  A
C1279      C1284   1.405       .  A
C1280      C1281   1.413       .  A
C1281      C1282   1.395       .  A
C1281      H1290   1.078       .  S
C1282      C1283   1.401       .  A
C1282      H1291   1.083       .  S
C1283      C1284   1.399       .  A
C1284      H1292   1.084       .  S
C1293      C1294   1.397       .  A
C1293      C1298   1.398       .  A
C1294      C1295   1.401       .  A
C1294      H1307   1.083       .  S
C1295      C1296   1.418       .  A
C1295      H1308   1.077       .  S
C1296      C1302   1.434       .  A
C1296      C1297   1.423       .  A
C1297      C1299   1.399       .  A
C1297      C1298   1.406       .  A
C1298      H1309   1.085       .  S
C1299      C1300   1.390       .  A
C1299      H1310   1.084       .  S
C1300      C1301   1.401       .  A
C1300      H1311   1.084       .  S
C1301      C1302   1.420       .  A
C1301      C1306   1.407       .  A
C1302      C1303   1.412       .  A
C1303      C1304   1.398       .  A
C1303      H1312   1.077       .  S
C1304      C1305   1.412       .  A
C1304      H1313   1.083       .  S
C1305      C1306   1.414       .  A
C1306      H1314   1.079       .  S
C1315      C1316   1.398       .  A
C1315      C1320   1.400       .  A
C1316      C1317   1.399       .  A
C1316      H1329   1.083       .  S
C1317      C1318   1.417       .  A
C1317      H1330   1.078       .  S
C1318      C1324   1.429       .  A
C1318      C1319   1.421       .  A
C1319      C1321   1.399       .  A
C1319      C1320   1.404       .  A
C1320      H1331   1.085       .  S
C1321      C1322   1.390       .  A
C1321      H1332   1.084       .  S
C1322      C1323   1.401       .  A
C1322      H1333   1.084       .  S
C1323      C1324   1.416       .  A
C1323      C1328   1.407       .  A
C1324      C1325   1.406       .  A
C1325      C1326   1.396       .  A
C1325      H1334   1.079       .  S
C1326      C1327   1.420       .  A
C1326      H1335   1.077       .  S
C1327      C1328   1.414       .  A
C1328      H1336   1.071       .  S
C1337      C1338   1.412       .  A
C1337      C1342   1.412       .  A
C1338      C1339   1.394       .  A
C1338      H1351   1.079       .  S
C1339      C1340   1.410       .  A
C1339      H1352   1.078       .  S
C1340      C1346   1.429       .  A
C1340      C1341   1.419       .  A
C1341      C1343   1.400       .  A
C1341      C1342   1.406       .  A
C1342      H1353   1.085       .  S
C1343      C1344   1.391       .  A
C1343      H1354   1.084       .  S
C1344      C1345   1.400       .  A
C1344      H1355   1.084       .  S
C1345      C1346   1.422       .  A
C1345      C1350   1.406       .  A
C1346      C1347   1.416       .  A
C1347      C1348   1.396       .  A
C1347      H1356   1.077       .  S
C1348      C1349   1.398       .  A
C1348      H1357   1.083       .  S
C1349      C1350   1.400       .  A
C1350      H1358   1.085       .  S
C1359      C1360   1.399       .  A
C1359      C1364   1.402       .  A
C1360      C1361   1.398       .  A
C1360      H1373   1.083       .  S
C1361      C1362   1.416       .  A
C1361      H1374   1.077       .  S
C1362      C1368   1.434       .  A
C1362      C1363   1.423       .  A
C1363      C1365   1.400       .  A
C1363      C1364   1.410       .  A
C1364      H1375   1.084       .  S
C1365      C1366   1.392       .  A
C1365      H1376   1.084       .  S
C1366      C1367   1.401       .  A
C1366      H1377   1.084       .  S
C1367      C1368   1.421       .  A
C1367      C1372   1.411       .  A
C1368      C1369   1.411       .  A
C1369      C1370   1.397       .  A
C1369      H1378   1.077       .  S
C1370      C1371   1.412       .  A
C1370      H1379   1.082       .  S
C1371      C1372   1.412       .  A
C1372      H1380   1.079       .  S
C1381      C1382   1.409       .  A
C1381      C1386   1.412       .  A
C1382      C1383   1.396       .  A
C1382      H1395   1.080       .  S
C1383      C1384   1.412       .  A
C1383      H1396   1.077       .  S
C1384      C1390   1.430       .  A
C1384      C1385   1.419       .  A
C1385      C1387   1.400       .  A
C1385      C1386   1.403       .  A
C1386      H1397   1.084       .  S
C1387      C1388   1.390       .  A
C1387      H1398   1.084       .  S
C1388      C1389   1.399       .  A
C1388      H1399   1.084       .  S
C1389      C1390   1.423       .  A
C1389      C1394   1.404       .  A
C1390      C1391   1.416       .  A
C1391      C1392   1.397       .  A
C1391      H1400   1.077       .  S
C1392      C1393   1.398       .  A
C1392      H1401   1.083       .  S
C1393      C1394   1.400       .  A
C1394      H1402   1.085       .  S
C1403      C1404   1.411       .  A
C1403      C1408   1.412       .  A
C1404      C1405   1.398       .  A
C1404      H1417   1.083       .  S
C1405      C1406   1.413       .  A
C1405      H1418   1.077       .  S
C1406      C1412   1.432       .  A
C1406      C1407   1.420       .  A
C1407      C1409   1.400       .  A
C1407      C1408   1.404       .  A
C1408      H1419   1.081       .  S
C1409      C1410   1.388       .  A
C1409      H1420   1.084       .  S
C1410      C1411   1.398       .  A
C1410      H1421   1.084       .  S
C1411      C1412   1.424       .  A
C1411      C1416   1.405       .  A
C1412      C1413   1.416       .  A
C1413      C1414   1.398       .  A
C1413      H1422   1.077       .  S
C1414      C1415   1.400       .  A
C1414      H1423   1.084       .  S
C1415      C1416   1.398       .  A
C1416      H1424   1.085       .  S
C1425      C1426   1.400       .  A
C1425      C1430   1.402       .  A
C1426      C1427   1.398       .  A
C1426      H1439   1.084       .  S
C1427      C1428   1.416       .  A
C1427      H1440   1.077       .  S
C1428      C1434   1.433       .  A
C1428      C1429   1.424       .  A
C1429      C1431   1.400       .  A
C1429      C1430   1.408       .  A
C1430      H1441   1.085       .  S
C1431      C1432   1.391       .  A
C1431      H1442   1.084       .  S
C1432      C1433   1.400       .  A
C1432      H1443   1.084       .  S
C1433      C1434   1.419       .  A
C1433      C1438   1.407       .  A
C1434      C1435   1.413       .  A
C1435      C1436   1.399       .  A
C1435      H1444   1.077       .  S
C1436      C1437   1.411       .  A
C1436      H1445   1.079       .  S
C1437      C1438   1.412       .  A
C1438      H1446   1.085       .  S
C1447      C1448   1.421       .  A
C1447      C1452   1.418       .  A
C1448      C1449   1.400       .  A
C1448      H1461   1.076       .  S
C1449      C1450   1.408       .  A
C1449      H1462   1.079       .  S
C1450      C1456   1.434       .  A
C1450      C1451   1.416       .  A
C1451      C1453   1.402       .  A
C1451      C1452   1.409       .  A
C1452      H1463   1.073       .  S
C1453      C1454   1.391       .  A
C1453      H1464   1.084       .  S
C1454      C1455   1.399       .  A
C1454      H1465   1.084       .  S
C1455      C1456   1.422       .  A
C1455      C1460   1.407       .  A
C1456      C1457   1.416       .  A
C1457      C1458   1.402       .  A
C1457      H1466   1.078       .  S
C1458      C1459   1.402       .  A
C1458      H1467   1.083       .  S
C1459      C1460   1.402       .  A
C1460      H1468   1.085       .  S
C1469      C1470   1.410       .  A
C1469      C1474   1.411       .  A
C1470      C1471   1.393       .  A
C1470      H1483   1.084       .  S
C1471      C1472   1.411       .  A
C1471      H1484   1.077       .  S
C1472      C1478   1.431       .  A
C1472      C1473   1.421       .  A
C1473      C1475   1.401       .  A
C1473      C1474   1.408       .  A
C1474      H1485   1.080       .  S
C1475      C1476   1.391       .  A
C1475      H1486   1.084       .  S
C1476      C1477   1.399       .  A
C1476      H1487   1.084       .  S
C1477      C1478   1.424       .  A
C1477      C1482   1.408       .  A
C1478      C1479   1.416       .  A
C1479      C1480   1.395       .  A
C1479      H1488   1.077       .  S
C1480      C1481   1.397       .  A
C1480      H1489   1.084       .  S
C1481      C1482   1.399       .  A
C1482      H1490   1.084       .  S
C1491      C1492   1.406       .  A
C1491      C1496   1.406       .  A
C1492      C1493   1.403       .  A
C1492      H1505   1.083       .  S
C1493      C1494   1.414       .  A
C1493      H1506   1.080       .  S
C1494      C1500   1.431       .  A
C1494      C1495   1.419       .  A
C1495      C1497   1.399       .  A
C1495      C1496   1.404       .  A
C1496      H1507   1.084       .  S
C1497      C1498   1.390       .  A
C1497      H1508   1.084       .  S
C1498      C1499   1.400       .  A
C1498      H1509   1.084       .  S
C1499      C1500   1.418       .  A
C1499      C1504   1.405       .  A
C1500      C1501   1.411       .  A
C1501      C1502   1.401       .  A
C1501      H1510   1.080       .  S
C1502      C1503   1.414       .  A
C1502      H1511   1.083       .  S
C1503      C1504   1.412       .  A
C1504      H1512   1.076       .  S
C1513      C1514   1.399       .  A
C1513      C1518   1.401       .  A
C1514      C1515   1.394       .  A
C1514      H1527   1.084       .  S
C1515      C1516   1.414       .  A
C1515      H1528   1.077       .  S
C1516      C1522   1.430       .  A
C1516      C1517   1.423       .  A
C1517      C1519   1.400       .  A
C1517      C1518   1.409       .  A
C1518      H1529   1.084       .  S
C1519      C1520   1.392       .  A
C1519      H1530   1.084       .  S
C1520      C1521   1.401       .  A
C1520      H1531   1.084       .  S
C1521      C1522   1.420       .  A
C1521      C1526   1.408       .  A
C1522      C1523   1.412       .  A
C1523      C1524   1.394       .  A
C1523      H1532   1.077       .  S
C1524      C1525   1.408       .  A
C1524      H1533   1.083       .  S
C1525      C1526   1.412       .  A
C1526      H1534   1.081       .  S
C1535      C1536   1.410       .  A
C1535      C1540   1.410       .  A
C1536      C1537   1.391       .  A
C1536      H1549   1.084       .  S
C1537      C1538   1.410       .  A
C1537      H1550   1.077       .  S
C1538      C1544   1.428       .  A
C1538      C1539   1.422       .  A
C1539      C1541   1.400       .  A
C1539      C1540   1.408       .  A
C1540      H1551   1.082       .  S
C1541      C1542   1.391       .  A
C1541      H1552   1.084       .  S
C1542      C1543   1.399       .  A
C1542      H1553   1.084       .  S
C1543      C1544   1.422       .  A
C1543      C1548   1.405       .  A
C1544      C1545   1.416       .  A
C1545      C1546   1.395       .  A
C1545      H1554   1.077       .  S
C1546      C1547   1.396       .  A
C1546      H1555   1.084       .  S
C1547      C1548   1.399       .  A
C1548      H1556   1.084       .  S
C1557      C1558   1.407       .  A
C1557      C1562   1.411       .  A
C1558      C1559   1.398       .  A
C1558      H1571   1.083       .  S
C1559      C1560   1.411       .  A
C1559      H1572   1.080       .  S
C1560      C1566   1.430       .  A
C1560      C1561   1.419       .  A
C1561      C1563   1.402       .  A
C1561      C1562   1.411       .  A
C1562      H1573   1.083       .  S
C1563      C1564   1.397       .  A
C1563      H1574   1.084       .  S
C1564      C1565   1.402       .  A
C1564      H1575   1.084       .  S
C1565      C1566   1.417       .  A
C1565      C1570   1.410       .  A
C1566      C1567   1.409       .  A
C1567      C1568   1.398       .  A
C1567      H1576   1.080       .  S
C1568      C1569   1.413       .  A
C1568      H1577   1.077       .  S
C1569      C1570   1.415       .  A
C1570      H1578   1.084       .  S
C1579      C1580   1.399       .  A
C1579      C1584   1.403       .  A
C1580      C1581   1.397       .  A
C1580      H1593   1.083       .  S
C1581      C1582   1.416       .  A
C1581      H1594   1.077       .  S
C1582      C1588   1.430       .  A
C1582      C1583   1.421       .  A
C1583      C1585   1.400       .  A
C1583      C1584   1.406       .  A
C1584      H1595   1.085       .  S
C1585      C1586   1.392       .  A
C1585      H1596   1.084       .  S
C1586      C1587   1.399       .  A
C1586      H1597   1.084       .  S
C1587      C1588   1.420       .  A
C1587      C1592   1.407       .  A
C1588      C1589   1.410       .  A
C1589      C1590   1.394       .  A
C1589      H1598   1.078       .  S
C1590      C1591   1.412       .  A
C1590      H1599   1.080       .  S
C1591      C1592   1.410       .  A
C1592      H1600   1.085       .  S
C1601      C1602   1.409       .  A
C1601      C1606   1.410       .  A
C1602      C1603   1.390       .  A
C1602      H1615   1.082       .  S
C1603      C1604   1.409       .  A
C1603      H1616   1.077       .  S
C1604      C1610   1.428       .  A
C1604      C1605   1.421       .  A
C1605      C1607   1.400       .  A
C1605      C1606   1.409       .  A
C1606      H1617   1.081       .  S
C1607      C1608   1.392       .  A
C1607      H1618   1.084       .  S
C1608      C1609   1.401       .  A
C1608      H1619   1.084       .  S
C1609      C1610   1.422       .  A
C1609      C1614   1.407       .  A
C1610      C1611   1.415       .  A
C1611      C1612   1.394       .  A
C1611      H1620   1.077       .  S
C1612      C1613   1.398       .  A
C1612      H1621   1.084       .  S
C1613      C1614   1.403       .  A
C1614      H1622   1.084       .  S
C1623      C1624   1.403       .  A
C1623      C1628   1.405       .  A
C1624      C1625   1.400       .  A
C1624      H1637   1.083       .  S
C1625      C1626   1.415       .  A
C1625      H1638   1.079       .  S
C1626      C1632   1.429       .  A
C1626      C1627   1.420       .  A
C1627      C1629   1.400       .  A
C1627      C1628   1.404       .  A
C1628      H1639   1.085       .  S
C1629      C1630   1.392       .  A
C1629      H1640   1.084       .  S
C1630      C1631   1.400       .  A
C1630      H1641   1.084       .  S
C1631      C1632   1.419       .  A
C1631      C1636   1.407       .  A
C1632      C1633   1.410       .  A
C1633      C1634   1.398       .  A
C1633      H1642   1.079       .  S
C1634      C1635   1.410       .  A
C1634      H1643   1.083       .  S
C1635      C1636   1.412       .  A
C1636      H1644   1.082       .  S
C1645      C1646   1.410       .  A
C1645      C1650   1.410       .  A
C1646      C1647   1.394       .  A
C1646      H1659   1.082       .  S
C1647      C1648   1.411       .  A
C1647      H1660   1.077       .  S
C1648      C1654   1.432       .  A
C1648      C1649   1.422       .  A
C1649      C1651   1.400       .  A
C1649      C1650   1.410       .  A
C1650      H1661   1.081       .  S
C1651      C1652   1.392       .  A
C1651      H1662   1.084       .  S
C1652      C1653   1.400       .  A
C1652      H1663   1.084       .  S
C1653      C1654   1.422       .  A
C1653      C1658   1.408       .  A
C1654      C1655   1.416       .  A
C1655      C1656   1.397       .  A
C1655      H1664   1.077       .  S
C1656      C1657   1.399       .  A
C1656      H1665   1.084       .  S
C1657      C1658   1.403       .  A
C1658      H1666   1.084       .  S
C1667      C1668   1.400       .  A
C1667      C1672   1.405       .  A
C1668      C1669   1.399       .  A
C1668      H1681   1.083       .  S
C1669      C1670   1.415       .  A
C1669      H1682   1.078       .  S
C1670      C1676   1.431       .  A
C1670      C1671   1.421       .  A
C1671      C1673   1.401       .  A
C1671      C1672   1.409       .  A
C1672      H1683   1.084       .  S
C1673      C1674   1.394       .  A
C1673      H1684   1.084       .  S
C1674      C1675   1.401       .  A
C1674      H1685   1.084       .  S
C1675      C1676   1.419       .  A
C1675      C1680   1.408       .  A
C1676      C1677   1.411       .  A
C1677      C1678   1.397       .  A
C1677      H1686   1.079       .  S
C1678      C1679   1.411       .  A
C1678      H1687   1.080       .  S
C1679      C1680   1.413       .  A
C1680      H1688   1.084       .  S
C1689      C1690   1.410       .  A
C1689      C1694   1.414       .  A
C1690      C1691   1.391       .  A
C1690      H1703   1.083       .  S
C1691      C1692   1.409       .  A
C1691      H1704   1.078       .  S
C1692      C1698   1.426       .  A
C1692      C1693   1.418       .  A
C1693      C1695   1.402       .  A
C1693      C1694   1.409       .  A
C1694      H1705   1.081       .  S
C1695      C1696   1.395       .  A
C1695      H1706   1.084       .  S
C1696      C1697   1.402       .  A
C1696      H1707   1.084       .  S
C1697      C1698   1.421       .  A
C1697      C1702   1.411       .  A
C1698      C1699   1.412       .  A
C1699      C1700   1.392       .  A
C1699      H1708   1.078       .  S
C1700      C1701   1.399       .  A
C1700      H1709   1.083       .  S
C1701      C1702   1.404       .  A
C1702      H1710   1.084       .  S
C1711      C1712   1.400       .  A
C1711      C1716   1.398       .  A
C1712      C1713   1.394       .  A
C1712      H1725   1.083       .  S
C1713      C1714   1.413       .  A
C1713      H1726   1.078       .  S
C1714      C1720   1.428       .  A
C1714      C1715   1.424       .  A
C1715      C1717   1.398       .  A
C1715      C1716   1.406       .  A
C1716      H1727   1.084       .  S
C1717      C1718   1.390       .  A
C1717      H1728   1.084       .  S
C1718      C1719   1.401       .  A
C1718      H1729   1.084       .  S
C1719      C1720   1.418       .  A
C1719      C1724   1.403       .  A
C1720      C1721   1.412       .  A
C1721      C1722   1.395       .  A
C1721      H1730   1.077       .  S
C1722      C1723   1.409       .  A
C1722      H1731   1.083       .  S
C1723      C1724   1.414       .  A
C1724      H1732   1.079       .  S
C1733      C1734   1.411       .  A
C1733      C1738   1.413       .  A
C1734      C1735   1.395       .  A
C1734      H1747   1.083       .  S
C1735      C1736   1.412       .  A
C1735      H1748   1.077       .  S
C1736      C1742   1.429       .  A
C1736      C1737   1.418       .  A
C1737      C1739   1.401       .  A
C1737      C1738   1.405       .  A
C1738      H1749   1.078       .  S
C1739      C1740   1.391       .  A
C1739      H1750   1.084       .  S
C1740      C1741   1.399       .  A
C1740      H1751   1.084       .  S
C1741      C1742   1.423       .  A
C1741      C1746   1.408       .  A
C1742      C1743   1.413       .  A
C1743      C1744   1.395       .  A
C1743      H1752   1.078       .  S
C1744      C1745   1.400       .  A
C1744      H1753   1.083       .  S
C1745      C1746   1.402       .  A
C1746      H1754   1.084       .  S
C1755      C1756   1.399       .  A
C1755      C1760   1.401       .  A
C1756      C1757   1.396       .  A
C1756      H1769   1.083       .  S
C1757      C1758   1.415       .  A
C1757      H1770   1.077       .  S
C1758      C1764   1.429       .  A
C1758      C1759   1.423       .  A
C1759      C1761   1.399       .  A
C1759      C1760   1.404       .  A
C1760      H1771   1.084       .  S
C1761      C1762   1.389       .  A
C1761      H1772   1.084       .  S
C1762      C1763   1.399       .  A
C1762      H1773   1.084       .  S
C1763      C1764   1.420       .  A
C1763      C1768   1.403       .  A
C1764      C1765   1.413       .  A
C1765      C1766   1.396       .  A
C1765      H1774   1.077       .  S
C1766      C1767   1.408       .  A
C1766      H1775   1.082       .  S
C1767      C1768   1.408       .  A
C1768      H1776   1.084       .  S
C1777      C1778   1.398       .  A
C1777      C1782   1.401       .  A
C1778      C1779   1.398       .  A
C1778      H1791   1.083       .  S
C1779      C1780   1.416       .  A
C1779      H1792   1.078       .  S
C1780      C1786   1.428       .  A
C1780      C1781   1.421       .  A
C1781      C1783   1.400       .  A
C1781      C1782   1.404       .  A
C1782      H1793   1.085       .  S
C1783      C1784   1.391       .  A
C1783      H1794   1.084       .  S
C1784      C1785   1.400       .  A
C1784      H1795   1.084       .  S
C1785      C1786   1.420       .  A
C1785      C1790   1.405       .  A
C1786      C1787   1.410       .  A
C1787      C1788   1.394       .  A
C1787      H1796   1.078       .  S
C1788      C1789   1.409       .  A
C1788      H1797   1.081       .  S
C1789      C1790   1.409       .  A
C1790      H1798   1.084       .  S
C1799      C1800   1.410       .  A
C1799      C1804   1.411       .  A
C1800      C1801   1.395       .  A
C1800      H1813   1.081       .  S
C1801      C1802   1.411       .  A
C1801      H1814   1.078       .  S
C1802      C1808   1.430       .  A
C1802      C1803   1.419       .  A
C1803      C1805   1.401       .  A
C1803      C1804   1.407       .  A
C1804      H1815   1.084       .  S
C1805      C1806   1.393       .  A
C1805      H1816   1.084       .  S
C1806      C1807   1.401       .  A
C1806      H1817   1.084       .  S
C1807      C1808   1.422       .  A
C1807      C1812   1.409       .  A
C1808      C1809   1.414       .  A
C1809      C1810   1.396       .  A
C1809      H1818   1.078       .  S
C1810      C1811   1.399       .  A
C1810      H1819   1.083       .  S
C1811      C1812   1.403       .  A
C1812      H1820   1.084       .  S
C1821      C1822   1.410       .  A
C1821      C1826   1.413       .  A
C1822      C1823   1.390       .  A
C1822      H1835   1.083       .  S
C1823      C1824   1.409       .  A
C1823      H1836   1.077       .  S
C1824      C1830   1.427       .  A
C1824      C1825   1.420       .  A
C1825      C1827   1.402       .  A
C1825      C1826   1.409       .  A
C1826      H1837   1.080       .  S
C1827      C1828   1.393       .  A
C1827      H1838   1.084       .  S
C1828      C1829   1.400       .  A
C1828      H1839   1.084       .  S
C1829      C1830   1.422       .  A
C1829      C1834   1.407       .  A
C1830      C1831   1.414       .  A
C1831      C1832   1.392       .  A
C1831      H1840   1.077       .  S
C1832      C1833   1.397       .  A
C1832      H1841   1.084       .  S
C1833      C1834   1.401       .  A
C1834      H1842   1.084       .  S
C1843      C1844   1.400       .  A
C1843      C1848   1.403       .  A
C1844      C1845   1.399       .  A
C1844      H1857   1.083       .  S
C1845      C1846   1.417       .  A
C1845      H1858   1.077       .  S
C1846      C1852   1.432       .  A
C1846      C1847   1.421       .  A
C1847      C1849   1.400       .  A
C1847      C1848   1.406       .  A
C1848      H1859   1.084       .  S
C1849      C1850   1.390       .  A
C1849      H1860   1.084       .  S
C1850      C1851   1.399       .  A
C1850      H1861   1.084       .  S
C1851      C1852   1.420       .  A
C1851      C1856   1.406       .  A
C1852      C1853   1.409       .  A
C1853      C1854   1.396       .  A
C1853      H1862   1.078       .  S
C1854      C1855   1.415       .  A
C1854      H1863   1.077       .  S
C1855      C1856   1.412       .  A
C1856      H1864   1.085       .  S
C1865      C1866   1.401       .  A
C1865      C1870   1.401       .  A
C1866      C1867   1.397       .  A
C1866      H1879   1.084       .  S
C1867      C1868   1.415       .  A
C1867      H1880   1.077       .  S
C1868      C1874   1.431       .  A
C1868      C1869   1.422       .  A
C1869      C1871   1.399       .  A
C1869      C1870   1.405       .  A
C1870      H1881   1.084       .  S
C1871      C1872   1.390       .  A
C1871      H1882   1.084       .  S
C1872      C1873   1.399       .  A
C1872      H1883   1.084       .  S
C1873      C1874   1.421       .  A
C1873      C1878   1.406       .  A
C1874      C1875   1.412       .  A
C1875      C1876   1.396       .  A
C1875      H1884   1.077       .  S
C1876      C1877   1.410       .  A
C1876      H1885   1.081       .  S
C1877      C1878   1.408       .  A
C1878      H1886   1.083       .  S
C1887      C1888   1.399       .  A
C1887      C1892   1.397       .  A
C1888      C1889   1.397       .  A
C1888      H1901   1.083       .  S
C1889      C1890   1.416       .  A
C1889      H1902   1.078       .  S
C1890      C1896   1.427       .  A
C1890      C1891   1.422       .  A
C1891      C1893   1.397       .  A
C1891      C1892   1.398       .  A
C1892      H1903   1.085       .  S
C1893      C1894   1.386       .  A
C1893      H1904   1.084       .  S
C1894      C1895   1.400       .  A
C1894      H1905   1.084       .  S
C1895      C1896   1.418       .  A
C1895      C1900   1.400       .  A
C1896      C1897   1.411       .  A
C1897      C1898   1.396       .  A
C1897      H1906   1.078       .  S
C1898      C1899   1.412       .  A
C1898      H1907   1.083       .  S
C1899      C1900   1.411       .  A
C1900      H1908   1.077       .  S
C1909      C1910   1.398       .  A
C1909      C1914   1.399       .  A
C1910      C1911   1.395       .  A
C1910      H1923   1.084       .  S
C1911      C1912   1.415       .  A
C1911      H1924   1.077       .  S
C1912      C1918   1.427       .  A
C1912      C1913   1.422       .  A
C1913      C1915   1.398       .  A
C1913      C1914   1.402       .  A
C1914      H1925   1.085       .  S
C1915      C1916   1.389       .  A
C1915      H1926   1.084       .  S
C1916      C1917   1.401       .  A
C1916      H1927   1.084       .  S
C1917      C1918   1.420       .  A
C1917      C1922   1.404       .  A
C1918      C1919   1.411       .  A
C1919      C1920   1.393       .  A
C1919      H1928   1.077       .  S
C1920      C1921   1.410       .  A
C1920      H1929   1.083       .  S
C1921      C1922   1.411       .  A
C1922      H1930   1.078       .  S
C1931      C1932   1.398       .  A
C1931      C1936   1.402       .  A
C1932      C1933   1.397       .  A
C1932      H1945   1.083       .  S
C1933      C1934   1.416       .  A
C1933      H1946   1.077       .  S
C1934      C1940   1.432       .  A
C1934      C1935   1.423       .  A
C1935      C1937   1.400       .  A
C1935      C1936   1.409       .  A
C1936      H1947   1.084       .  S
C1937      C1938   1.393       .  A
C1937      H1948   1.084       .  S
C1938      C1939   1.401       .  A
C1938      H1949   1.084       .  S
C1939      C1940   1.420       .  A
C1939      C1944   1.408       .  A
C1940      C1941   1.411       .  A
C1941      C1942   1.395       .  A
C1941      H1950   1.077       .  S
C1942      C1943   1.411       .  A
C1942      H1951   1.080       .  S
C1943      C1944   1.412       .  A
C1944      H1952   1.084       .  S
C1953      C1954   1.403       .  A
C1953      C1958   1.408       .  A
C1954      C1955   1.393       .  A
C1954      H1967   1.083       .  S
C1955      C1956   1.411       .  A
C1955      H1968   1.078       .  S
C1956      C1962   1.428       .  A
C1956      C1957   1.420       .  A
C1957      C1959   1.402       .  A
C1957      C1958   1.411       .  A
C1958      H1969   1.084       .  S
C1959      C1960   1.396       .  A
C1959      H1970   1.084       .  S
C1960      C1961   1.402       .  A
C1960      H1971   1.084       .  S
C1961      C1962   1.418       .  A
C1961      C1966   1.410       .  A
C1962      C1963   1.409       .  A
C1963      C1964   1.394       .  A
C1963      H1972   1.078       .  S
C1964      C1965   1.413       .  A
C1964      H1973   1.080       .  S
C1965      C1966   1.414       .  A
C1966      H1974   1.084       .  S
C1975      C1976   1.407       .  A
C1975      C1980   1.406       .  A
C1976      C1977   1.397       .  A
C1976      H1989   1.083       .  S
C1977      C1978   1.410       .  A
C1977      H1990   1.080       .  S
C1978      C1984   1.427       .  A
C1978      C1979   1.420       .  A
C1979      C1981   1.401       .  A
C1979      C1980   1.408       .  A
C1980      H1991   1.083       .  S
C1981      C1982   1.395       .  A
C1981      H1992   1.084       .  S
C1982      C1983   1.402       .  A
C1982      H1993   1.084       .  S
C1983      C1984   1.416       .  A
C1983      C1988   1.407       .  A
C1984      C1985   1.409       .  A
C1985      C1986   1.399       .  A
C1985      H1994   1.080       .  S
C1986      C1987   1.413       .  A
C1986      H1995   1.079       .  S
C1987      C1988   1.413       .  A
C1988      H1996   1.081       .  S
C1997      C1998   1.404       .  A
C1997      C2002   1.405       .  A
C1998      C1999   1.399       .  A
C1998      H2011   1.083       .  S
C1999      C2000   1.415       .  A
C1999      H2012   1.078       .  S
C2000      C2006   1.433       .  A
C2000      C2001   1.421       .  A
C2001      C2003   1.400       .  A
C2001      C2002   1.409       .  A
C2002      H2013   1.084       .  S
C2003      C2004   1.393       .  A
C2003      H2014   1.084       .  S
C2004      C2005   1.400       .  A
C2004      H2015   1.084       .  S
C2005      C2006   1.421       .  A
C2005      C2010   1.410       .  A
C2006      C2007   1.411       .  A
C2007      C2008   1.396       .  A
C2007      H2016   1.078       .  S
C2008      C2009   1.412       .  A
C2008      H2017   1.082       .  S
C2009      C2010   1.409       .  A
C2010      H2018   1.083       .  S
C2019      C2020   1.396       .  A
C2019      C2024   1.398       .  A
C2020      C2021   1.394       .  A
C2020      H2033   1.084       .  S
C2021      C2022   1.415       .  A
C2021      H2034   1.078       .  S
C2022      C2028   1.425       .  A
C2022      C2023   1.421       .  A
C2023      C2025   1.400       .  A
C2023      C2024   1.404       .  A
C2024      H2035   1.084       .  S
C2025      C2026   1.392       .  A
C2025      H2036   1.084       .  S
C2026      C2027   1.400       .  A
C2026      H2037   1.084       .  S
C2027      C2028   1.420       .  A
C2027      C2032   1.406       .  A
C2028      C2029   1.408       .  A
C2029      C2030   1.391       .  A
C2029      H2038   1.078       .  S
C2030      C2031   1.412       .  A
C2030      H2039   1.081       .  S
C2031      C2032   1.409       .  A
C2032      H2040   1.084       .  S
C2041      C2042   1.412       .  A
C2041      C2046   1.411       .  A
C2042      C2043   1.395       .  A
C2042      H2055   1.081       .  S
C2043      C2044   1.410       .  A
C2043      H2056   1.078       .  S
C2044      C2050   1.429       .  A
C2044      C2045   1.419       .  A
C2045      C2047   1.401       .  A
C2045      C2046   1.408       .  A
C2046      H2057   1.084       .  S
C2047      C2048   1.394       .  A
C2047      H2058   1.084       .  S
C2048      C2049   1.401       .  A
C2048      H2059   1.084       .  S
C2049      C2050   1.420       .  A
C2049      C2054   1.409       .  A
C2050      C2051   1.412       .  A
C2051      C2052   1.395       .  A
C2051      H2060   1.078       .  S
C2052      C2053   1.404       .  A
C2052      H2061   1.083       .  S
C2053      C2054   1.406       .  A
C2054      H2062   1.084       .  S
C2063      C2064   1.414       .  A
C2063      C2068   1.415       .  A
C2064      C2065   1.396       .  A
C2064      H2077   1.077       .  S
C2065      C2066   1.408       .  A
C2065      H2078   1.079       .  S
C2066      C2072   1.429       .  A
C2066      C2067   1.417       .  A
C2067      C2069   1.402       .  A
C2067      C2068   1.409       .  A
C2068      H2079   1.084       .  S
C2069      C2070   1.395       .  A
C2069      H2080   1.084       .  S
C2070      C2071   1.402       .  A
C2070      H2081   1.084       .  S
C2071      C2072   1.420       .  A
C2071      C2076   1.411       .  A
C2072      C2073   1.411       .  A
C2073      C2074   1.396       .  A
C2073      H2082   1.079       .  S
C2074      C2075   1.406       .  A
C2074      H2083   1.083       .  S
C2075      C2076   1.407       .  A
C2076      H2084   1.084       .  S
C2085      C2086   1.411       .  A
C2085      C2090   1.411       .  A
C2086      C2087   1.396       .  A
C2086      H2099   1.084       .  S
C2087      C2088   1.412       .  A
C2087      H2100   1.077       .  S
C2088      C2094   1.434       .  A
C2088      C2089   1.421       .  A
C2089      C2091   1.401       .  A
C2089      C2090   1.409       .  A
C2090      H2101   1.080       .  S
C2091      C2092   1.391       .  A
C2091      H2102   1.084       .  S
C2092      C2093   1.399       .  A
C2092      H2103   1.084       .  S
C2093      C2094   1.424       .  A
C2093      C2098   1.409       .  A
C2094      C2095   1.416       .  A
C2095      C2096   1.398       .  A
C2095      H2104   1.077       .  S
C2096      C2097   1.399       .  A
C2096      H2105   1.084       .  S
C2097      C2098   1.400       .  A
C2098      H2106   1.084       .  S
C2107      C2108   1.410       .  A
C2107      C2112   1.412       .  A
C2108      C2109   1.399       .  A
C2108      H2121   1.083       .  S
C2109      C2110   1.410       .  A
C2109      H2122   1.080       .  S
C2110      C2116   1.428       .  A
C2110      C2111   1.418       .  A
C2111      C2113   1.400       .  A
C2111      C2112   1.405       .  A
C2112      H2123   1.083       .  S
C2113      C2114   1.392       .  A
C2113      H2124   1.084       .  S
C2114      C2115   1.400       .  A
C2114      H2125   1.084       .  S
C2115      C2116   1.420       .  A
C2115      C2120   1.404       .  A
C2116      C2117   1.414       .  A
C2117      C2118   1.400       .  A
C2117      H2126   1.080       .  S
C2118      C2119   1.404       .  A
C2118      H2127   1.083       .  S
C2119      C2120   1.404       .  A
C2120      H2128   1.085       .  S
C2129      C2130   1.411       .  A
C2129      C2134   1.413       .  A
C2130      C2131   1.396       .  A
C2130      H2143   1.084       .  S
C2131      C2132   1.411       .  A
C2131      H2144   1.077       .  S
C2132      C2138   1.435       .  A
C2132      C2133   1.422       .  A
C2133      C2135   1.401       .  A
C2133      C2134   1.413       .  A
C2134      H2145   1.081       .  S
C2135      C2136   1.394       .  A
C2135      H2146   1.084       .  S
C2136      C2137   1.401       .  A
C2136      H2147   1.084       .  S
C2137      C2138   1.423       .  A
C2137      C2142   1.413       .  A
C2138      C2139   1.416       .  A
C2139      C2140   1.399       .  A
C2139      H2148   1.077       .  S
C2140      C2141   1.399       .  A
C2140      H2149   1.083       .  S
C2141      C2142   1.403       .  A
C2142      H2150   1.084       .  S
C2151      C2152   1.413       .  A
C2151      C2156   1.414       .  A
C2152      C2153   1.390       .  A
C2152      H2165   1.077       .  S
C2153      C2154   1.406       .  A
C2153      H2166   1.078       .  S
C2154      C2160   1.424       .  A
C2154      C2155   1.418       .  A
C2155      C2157   1.401       .  A
C2155      C2156   1.408       .  A
C2156      H2167   1.084       .  S
C2157      C2158   1.394       .  A
C2157      H2168   1.084       .  S
C2158      C2159   1.401       .  A
C2158      H2169   1.084       .  S
C2159      C2160   1.420       .  A
C2159      C2164   1.406       .  A
C2160      C2161   1.414       .  A
C2161      C2162   1.392       .  A
C2161      H2170   1.078       .  S
C2162      C2163   1.398       .  A
C2162      H2171   1.083       .  S
C2163      C2164   1.403       .  A
C2164      H2172   1.084       .  S
C2173      C2174   1.410       .  A
C2173      C2178   1.410       .  A
C2174      C2175   1.396       .  A
C2174      H2187   1.080       .  S
C2175      C2176   1.412       .  A
C2175      H2188   1.077       .  S
C2176      C2182   1.431       .  A
C2176      C2177   1.420       .  A
C2177      C2179   1.400       .  A
C2177      C2178   1.404       .  A
C2178      H2189   1.085       .  S
C2179      C2180   1.390       .  A
C2179      H2190   1.084       .  S
C2180      C2181   1.400       .  A
C2180      H2191   1.084       .  S
C2181      C2182   1.423       .  A
C2181      C2186   1.407       .  A
C2182      C2183   1.415       .  A
C2183      C2184   1.397       .  A
C2183      H2192   1.077       .  S
C2184      C2185   1.399       .  A
C2184      H2193   1.083       .  S
C2185      C2186   1.401       .  A
C2186      H2194   1.084       .  S
C2195      C2196   1.399       .  A
C2195      C2200   1.402       .  A
C2196      C2197   1.392       .  A
C2196      H2209   1.083       .  S
C2197      C2198   1.413       .  A
C2197      H2210   1.077       .  S
C2198      C2204   1.428       .  A
C2198      C2199   1.423       .  A
C2199      C2201   1.400       .  A
C2199      C2200   1.408       .  A
C2200      H2211   1.084       .  S
C2201      C2202   1.392       .  A
C2201      H2212   1.084       .  S
C2202      C2203   1.402       .  A
C2202      H2213   1.084       .  S
C2203      C2204   1.419       .  A
C2203      C2208   1.407       .  A
C2204      C2205   1.412       .  A
C2205      C2206   1.393       .  A
C2205      H2214   1.077       .  S
C2206      C2207   1.409       .  A
C2206      H2215   1.083       .  S
C2207      C2208   1.415       .  A
C2208      H2216   1.078       .  S
C2217      C2218   1.410       .  A
C2217      C2222   1.408       .  A
C2218      C2219   1.397       .  A
C2218      H2231   1.081       .  S
C2219      C2220   1.413       .  A
C2219      H2232   1.077       .  S
C2220      C2226   1.432       .  A
C2220      C2221   1.421       .  A
C2221      C2223   1.399       .  A
C2221      C2222   1.405       .  A
C2222      H2233   1.084       .  S
C2223      C2224   1.390       .  A
C2223      H2234   1.084       .  S
C2224      C2225   1.399       .  A
C2224      H2235   1.084       .  S
C2225      C2226   1.423       .  A
C2225      C2230   1.406       .  A
C2226      C2227   1.415       .  A
C2227      C2228   1.398       .  A
C2227      H2236   1.077       .  S
C2228      C2229   1.401       .  A
C2228      H2237   1.083       .  S
C2229      C2230   1.401       .  A
C2230      H2238   1.084       .  S
C2239      C2240   1.410       .  A
C2239      C2244   1.413       .  A
C2240      C2241   1.393       .  A
C2240      H2253   1.083       .  S
C2241      C2242   1.411       .  A
C2241      H2254   1.077       .  S
C2242      C2248   1.430       .  A
C2242      C2243   1.420       .  A
C2243      C2245   1.401       .  A
C2243      C2244   1.408       .  A
C2244      H2255   1.079       .  S
C2245      C2246   1.392       .  A
C2245      H2256   1.084       .  S
C2246      C2247   1.400       .  A
C2246      H2257   1.084       .  S
C2247      C2248   1.422       .  A
C2247      C2252   1.408       .  A
C2248      C2249   1.414       .  A
C2249      C2250   1.395       .  A
C2249      H2258   1.077       .  S
C2250      C2251   1.400       .  A
C2250      H2259   1.083       .  S
C2251      C2252   1.401       .  A
C2252      H2260   1.084       .  S
C2261      C2262   1.413       .  A
C2261      C2266   1.416       .  A
C2262      C2263   1.399       .  A
C2262      H2275   1.075       .  S
C2263      C2264   1.411       .  A
C2263      H2276   1.078       .  S
C2264      C2270   1.432       .  A
C2264      C2265   1.418       .  A
C2265      C2267   1.400       .  A
C2265      C2266   1.404       .  A
C2266      H2277   1.084       .  S
C2267      C2268   1.390       .  A
C2267      H2278   1.084       .  S
C2268      C2269   1.399       .  A
C2268      H2279   1.084       .  S
C2269      C2270   1.422       .  A
C2269      C2274   1.405       .  A
C2270      C2271   1.416       .  A
C2271      C2272   1.399       .  A
C2271      H2280   1.078       .  S
C2272      C2273   1.401       .  A
C2272      H2281   1.083       .  S
C2273      C2274   1.401       .  A
C2274      H2282   1.084       .  S
C2283      C2284   1.396       .  A
C2283      C2288   1.397       .  A
C2284      C2285   1.395       .  A
C2284      H2297   1.084       .  S
C2285      C2286   1.415       .  A
C2285      H2298   1.077       .  S
C2286      C2292   1.430       .  A
C2286      C2287   1.425       .  A
C2287      C2289   1.399       .  A
C2287      C2288   1.408       .  A
C2288      H2299   1.085       .  S
C2289      C2290   1.390       .  A
C2289      H2300   1.084       .  S
C2290      C2291   1.400       .  A
C2290      H2301   1.084       .  S
C2291      C2292   1.419       .  A
C2291      C2296   1.403       .  A
C2292      C2293   1.414       .  A
C2293      C2294   1.397       .  A
C2293      H2302   1.077       .  S
C2294      C2295   1.409       .  A
C2294      H2303   1.080       .  S
C2295      C2296   1.411       .  A
C2296      H2304   1.084       .  S
C2305      C2306   1.411       .  A
C2305      C2310   1.409       .  A
C2306      C2307   1.390       .  A
C2306      H2319   1.080       .  S
C2307      C2308   1.408       .  A
C2307      H2320   1.077       .  S
C2308      C2314   1.426       .  A
C2308      C2309   1.421       .  A
C2309      C2311   1.399       .  A
C2309      C2310   1.405       .  A
C2310      H2321   1.085       .  S
C2311      C2312   1.391       .  A
C2311      H2322   1.084       .  S
C2312      C2313   1.400       .  A
C2312      H2323   1.084       .  S
C2313      C2314   1.421       .  A
C2313      C2318   1.402       .  A
C2314      C2315   1.417       .  A
C2315      C2316   1.394       .  A
C2315      H2324   1.077       .  S
C2316      C2317   1.396       .  A
C2316      H2325   1.084       .  S
C2317      C2318   1.400       .  A
C2318      H2326   1.085       .  S
C2327      C2328   1.415       .  A
C2327      C2332   1.409       .  A
C2328      C2329   1.401       .  A
C2328      H2341   1.082       .  S
C2329      C2330   1.410       .  A
C2329      H2342   1.080       .  S
C2330      C2336   1.428       .  A
C2330      C2331   1.418       .  A
C2331      C2333   1.399       .  A
C2331      C2332   1.401       .  A
C2332      H2343   1.076       .  S
C2333      C2334   1.388       .  A
C2333      H2344   1.084       .  S
C2334      C2335   1.398       .  A
C2334      H2345   1.084       .  S
C2335      C2336   1.419       .  A
C2335      C2340   1.398       .  A
C2336      C2337   1.414       .  A
C2337      C2338   1.403       .  A
C2337      H2346   1.080       .  S
C2338      C2339   1.407       .  A
C2338      H2347   1.083       .  S
C2339      C2340   1.402       .  A
C2340      H2348   1.084       .  S
C2349      C2350   1.409       .  A
C2349      C2354   1.410       .  A
C2350      C2351   1.396       .  A
C2350      H2363   1.081       .  S
C2351      C2352   1.413       .  A
C2351      H2364   1.078       .  S
C2352      C2358   1.428       .  A
C2352      C2353   1.418       .  A
C2353      C2355   1.400       .  A
C2353      C2354   1.401       .  A
C2354      H2365   1.085       .  S
C2355      C2356   1.391       .  A
C2355      H2366   1.084       .  S
C2356      C2357   1.399       .  A
C2356      H2367   1.084       .  S
C2357      C2358   1.423       .  A
C2357      C2362   1.405       .  A
C2358      C2359   1.414       .  A
C2359      C2360   1.395       .  A
C2359      H2368   1.078       .  S
C2360      C2361   1.398       .  A
C2360      H2369   1.083       .  S
C2361      C2362   1.399       .  A
C2362      H2370   1.085       .  S
C2371      C2372   1.413       .  A
C2371      C2376   1.413       .  A
C2372      C2373   1.396       .  A
C2372      H2385   1.083       .  S
C2373      C2374   1.411       .  A
C2373      H2386   1.077       .  S
C2374      C2380   1.433       .  A
C2374      C2375   1.420       .  A
C2375      C2377   1.400       .  A
C2375      C2376   1.407       .  A
C2376      H2387   1.078       .  S
C2377      C2378   1.390       .  A
C2377      H2388   1.084       .  S
C2378      C2379   1.399       .  A
C2378      H2389   1.084       .  S
C2379      C2380   1.423       .  A
C2379      C2384   1.405       .  A
C2380      C2381   1.418       .  A
C2381      C2382   1.400       .  A
C2381      H2390   1.077       .  S
C2382      C2383   1.396       .  A
C2382      H2391   1.083       .  S
C2383      C2384   1.398       .  A
C2384      H2392   1.085       .  S
C2393      C2394   1.410       .  A
C2393      C2398   1.413       .  A
C2394      C2395   1.394       .  A
C2394      H2407   1.080       .  S
C2395      C2396   1.411       .  A
C2395      H2408   1.077       .  S
C2396      C2402   1.430       .  A
C2396      C2397   1.420       .  A
C2397      C2399   1.401       .  A
C2397      C2398   1.409       .  A
C2398      H2409   1.084       .  S
C2399      C2400   1.393       .  A
C2399      H2410   1.084       .  S
C2400      C2401   1.400       .  A
C2400      H2411   1.084       .  S
C2401      C2402   1.423       .  A
C2401      C2406   1.408       .  A
C2402      C2403   1.416       .  A
C2403      C2404   1.394       .  A
C2403      H2412   1.077       .  S
C2404      C2405   1.398       .  A
C2404      H2413   1.084       .  S
C2405      C2406   1.402       .  A
C2406      H2414   1.085       .  S
C2415      C2416   1.411       .  A
C2415      C2420   1.412       .  A
C2416      C2417   1.397       .  A
C2416      H2429   1.080       .  S
C2417      C2418   1.412       .  A
C2417      H2430   1.078       .  S
C2418      C2424   1.429       .  A
C2418      C2419   1.418       .  A
C2419      C2421   1.400       .  A
C2419      C2420   1.402       .  A
C2420      H2431   1.085       .  S
C2421      C2422   1.390       .  A
C2421      H2432   1.084       .  S
C2422      C2423   1.399       .  A
C2422      H2433   1.084       .  S
C2423      C2424   1.423       .  A
C2423      C2428   1.405       .  A
C2424      C2425   1.415       .  A
C2425      C2426   1.396       .  A
C2425      H2434   1.078       .  S
C2426      C2427   1.399       .  A
C2426      H2435   1.084       .  S
C2427      C2428   1.400       .  A
C2428      H2436   1.085       .  S
C2437      C2438   1.399       .  A
C2437      C2442   1.398       .  A
C2438      C2439   1.396       .  A
C2438      H2451   1.084       .  S
C2439      C2440   1.415       .  A
C2439      H2452   1.077       .  S
C2440      C2446   1.431       .  A
C2440      C2441   1.424       .  A
C2441      C2443   1.398       .  A
C2441      C2442   1.405       .  A
C2442      H2453   1.085       .  S
C2443      C2444   1.389       .  A
C2443      H2454   1.084       .  S
C2444      C2445   1.400       .  A
C2444      H2455   1.084       .  S
C2445      C2446   1.419       .  A
C2445      C2450   1.403       .  A
C2446      C2447   1.413       .  A
C2447      C2448   1.397       .  A
C2447      H2456   1.077       .  S
C2448      C2449   1.410       .  A
C2448      H2457   1.083       .  S
C2449      C2450   1.412       .  A
C2450      H2458   1.079       .  S
C2459      C2460   1.403       .  A
C2459      C2464   1.407       .  A
C2460      C2461   1.395       .  A
C2460      H2473   1.083       .  S
C2461      C2462   1.413       .  A
C2461      H2474   1.078       .  S
C2462      C2468   1.428       .  A
C2462      C2463   1.419       .  A
C2463      C2465   1.402       .  A
C2463      C2464   1.409       .  A
C2464      H2475   1.084       .  S
C2465      C2466   1.395       .  A
C2465      H2476   1.084       .  S
C2466      C2467   1.401       .  A
C2466      H2477   1.084       .  S
C2467      C2468   1.419       .  A
C2467      C2472   1.410       .  A
C2468      C2469   1.408       .  A
C2469      C2470   1.392       .  A
C2469      H2478   1.078       .  S
C2470      C2471   1.413       .  A
C2470      H2479   1.081       .  S
C2471      C2472   1.412       .  A
C2472      H2480   1.084       .  S
C2481      C2482   1.411       .  A
C2481      C2486   1.416       .  A
C2482      C2483   1.395       .  A
C2482      H2495   1.081       .  S
C2483      C2484   1.405       .  A
C2483      H2496   1.082       .  S
C2484      C2490   1.419       .  A
C2484      C2485   1.413       .  A
C2485      C2487   1.405       .  A
C2485      C2486   1.411       .  A
C2486      H2497   1.081       .  S
C2487      C2488   1.401       .  A
C2487      H2498   1.084       .  S
C2488      C2489   1.404       .  A
C2488      H2499   1.084       .  S
C2489      C2490   1.413       .  A
C2489      C2494   1.411       .  A
C2490      C2491   1.405       .  A
C2491      C2492   1.395       .  A
C2491      H2500   1.082       .  S
C2492      C2493   1.411       .  A
C2492      H2501   1.082       .  S
C2493      C2494   1.418       .  A
C2494      H2502   1.082       .  S
C2503      C2504   1.414       .  A
C2503      C2508   1.413       .  A
C2504      C2505   1.390       .  A
C2504      H2517   1.083       .  S
C2505      C2506   1.407       .  A
C2505      H2518   1.078       .  S
C2506      C2512   1.427       .  A
C2506      C2507   1.420       .  A
C2507      C2509   1.401       .  A
C2507      C2508   1.408       .  A
C2508      H2519   1.078       .  S
C2509      C2510   1.392       .  A
C2509      H2520   1.084       .  S
C2510      C2511   1.400       .  A
C2510      H2521   1.084       .  S
C2511      C2512   1.420       .  A
C2511      C2516   1.404       .  A
C2512      C2513   1.416       .  A
C2513      C2514   1.396       .  A
C2513      H2522   1.078       .  S
C2514      C2515   1.397       .  A
C2514      H2523   1.083       .  S
C2515      C2516   1.403       .  A
C2516      H2524   1.085       .  S
C2525      C2526   1.401       .  A
C2525      C2530   1.399       .  A
C2526      C2527   1.400       .  A
C2526      H2539   1.083       .  S
C2527      C2528   1.416       .  A
C2527      H2540   1.078       .  S
C2528      C2534   1.432       .  A
C2528      C2529   1.423       .  A
C2529      C2531   1.398       .  A
C2529      C2530   1.404       .  A
C2530      H2541   1.085       .  S
C2531      C2532   1.389       .  A
C2531      H2542   1.084       .  S
C2532      C2533   1.399       .  A
C2532      H2543   1.084       .  S
C2533      C2534   1.419       .  A
C2533      C2538   1.402       .  A
C2534      C2535   1.414       .  A
C2535      C2536   1.401       .  A
C2535      H2544   1.078       .  S
C2536      C2537   1.410       .  A
C2536      H2545   1.080       .  S
C2537      C2538   1.410       .  A
C2538      H2546   1.083       .  S
C2547      C2548   1.399       .  A
C2547      C2552   1.402       .  A
C2548      C2549   1.398       .  A
C2548      H2561   1.083       .  S
C2549      C2550   1.416       .  A
C2549      H2562   1.079       .  S
C2550      C2556   1.428       .  A
C2550      C2551   1.420       .  A
C2551      C2553   1.400       .  A
C2551      C2552   1.404       .  A
C2552      H2563   1.085       .  S
C2553      C2554   1.392       .  A
C2553      H2564   1.084       .  S
C2554      C2555   1.399       .  A
C2554      H2565   1.084       .  S
C2555      C2556   1.418       .  A
C2555      C2560   1.407       .  A
C2556      C2557   1.406       .  A
C2557      C2558   1.395       .  A
C2557      H2566   1.079       .  S
C2558      C2559   1.416       .  A
C2558      H2567   1.075       .  S
C2559      C2560   1.413       .  A
C2560      H2568   1.084       .  S
C2569      C2570   1.406       .  A
C2569      C2574   1.404       .  A
C2570      C2571   1.402       .  A
C2570      H2583   1.083       .  S
C2571      C2572   1.414       .  A
C2571      H2584   1.079       .  S
C2572      C2578   1.431       .  A
C2572      C2573   1.420       .  A
C2573      C2575   1.399       .  A
C2573      C2574   1.404       .  A
C2574      H2585   1.084       .  S
C2575      C2576   1.390       .  A
C2575      H2586   1.084       .  S
C2576      C2577   1.400       .  A
C2576      H2587   1.084       .  S
C2577      C2578   1.419       .  A
C2577      C2582   1.406       .  A
C2578      C2579   1.411       .  A
C2579      C2580   1.400       .  A
C2579      H2588   1.079       .  S
C2580      C2581   1.411       .  A
C2580      H2589   1.083       .  S
C2581      C2582   1.411       .  A
C2582      H2590   1.082       .  S
C2591      C2592   1.401       .  A
C2591      C2596   1.408       .  A
C2592      C2593   1.392       .  A
C2592      H2605   1.083       .  S
C2593      C2594   1.412       .  A
C2593      H2606   1.078       .  S
C2594      C2600   1.425       .  A
C2594      C2595   1.418       .  A
C2595      C2597   1.403       .  A
C2595      C2596   1.409       .  A
C2596      H2607   1.084       .  S
C2597      C2598   1.397       .  A
C2597      H2608   1.084       .  S
C2598      C2599   1.403       .  A
C2598      H2609   1.084       .  S
C2599      C2600   1.417       .  A
C2599      C2604   1.410       .  A
C2600      C2601   1.405       .  A
C2601      C2602   1.390       .  A
C2601      H2610   1.078       .  S
C2602      C2603   1.412       .  A
C2602      H2611   1.073       .  S
C2603      C2604   1.418       .  A
C2604      H2612   1.084       .  S
C2613      C2614   1.403       .  A
C2613      C2618   1.399       .  A
C2614      C2615   1.401       .  A
C2614      H2627   1.083       .  S
C2615      C2616   1.414       .  A
C2615      H2628   1.079       .  S
C2616      C2622   1.429       .  A
C2616      C2617   1.422       .  A
C2617      C2619   1.398       .  A
C2617      C2618   1.402       .  A
C2618      H2629   1.085       .  S
C2619      C2620   1.388       .  A
C2619      H2630   1.084       .  S
C2620      C2621   1.399       .  A
C2620      H2631   1.084       .  S
C2621      C2622   1.417       .  A
C2621      C2626   1.399       .  A
C2622      C2623   1.412       .  A
C2623      C2624   1.402       .  A
C2623      H2632   1.080       .  S
C2624      C2625   1.413       .  A
C2624      H2633   1.079       .  S
C2625      C2626   1.409       .  A
C2626      H2634   1.082       .  S
C2635      C2636   1.412       .  A
C2635      C2640   1.409       .  A
C2636      C2637   1.397       .  A
C2636      H2649   1.080       .  S
C2637      C2638   1.412       .  A
C2637      H2650   1.077       .  S
C2638      C2644   1.432       .  A
C2638      C2639   1.420       .  A
C2639      C2641   1.399       .  A
C2639      C2640   1.405       .  A
C2640      H2651   1.084       .  S
C2641      C2642   1.389       .  A
C2641      H2652   1.084       .  S
C2642      C2643   1.398       .  A
C2642      H2653   1.084       .  S
C2643      C2644   1.424       .  A
C2643      C2648   1.404       .  A
C2644      C2645   1.417       .  A
C2645      C2646   1.398       .  A
C2645      H2654   1.077       .  S
C2646      C2647   1.397       .  A
C2646      H2655   1.083       .  S
C2647      C2648   1.397       .  A
C2648      H2656   1.085       .  S
C2657      C2658   1.395       .  A
C2657      C2662   1.399       .  A
C2658      C2659   1.393       .  A
C2658      H2671   1.084       .  S
C2659      C2660   1.415       .  A
C2659      H2672   1.077       .  S
C2660      C2666   1.429       .  A
C2660      C2661   1.424       .  A
C2661      C2663   1.399       .  A
C2661      C2662   1.407       .  A
C2662      H2673   1.084       .  S
C2663      C2664   1.391       .  A
C2663      H2674   1.084       .  S
C2664      C2665   1.401       .  A
C2664      H2675   1.084       .  S
C2665      C2666   1.420       .  A
C2665      C2670   1.407       .  A
C2666      C2667   1.411       .  A
C2667      C2668   1.392       .  A
C2667      H2676   1.077       .  S
C2668      C2669   1.409       .  A
C2668      H2677   1.083       .  S
C2669      C2670   1.412       .  A
C2670      H2678   1.079       .  S
C2679      C2680   1.413       .  A
C2679      C2684   1.416       .  A
C2680      C2681   1.400       .  A
C2680      H2693   1.077       .  S
C2681      C2682   1.407       .  A
C2681      H2694   1.080       .  S
C2682      C2688   1.428       .  A
C2682      C2683   1.415       .  A
C2683      C2685   1.400       .  A
C2683      C2684   1.405       .  A
C2684      H2695   1.076       .  S
C2685      C2686   1.390       .  A
C2685      H2696   1.084       .  S
C2686      C2687   1.401       .  A
C2686      H2697   1.084       .  S
C2687      C2688   1.417       .  A
C2687      C2692   1.403       .  A
C2688      C2689   1.411       .  A
C2689      C2690   1.401       .  A
C2689      H2698   1.080       .  S
C2690      C2691   1.412       .  A
C2690      H2699   1.083       .  S
C2691      C2692   1.414       .  A
C2692      H2700   1.078       .  S
C2701      C2702   1.397       .  A
C2701      C2706   1.399       .  A
C2702      C2703   1.396       .  A
C2702      H2715   1.083       .  S
C2703      C2704   1.417       .  A
C2703      H2716   1.077       .  S
C2704      C2710   1.430       .  A
C2704      C2705   1.423       .  A
C2705      C2707   1.399       .  A
C2705      C2706   1.404       .  A
C2706      H2717   1.085       .  S
C2707      C2708   1.390       .  A
C2707      H2718   1.084       .  S
C2708      C2709   1.400       .  A
C2708      H2719   1.084       .  S
C2709      C2710   1.419       .  A
C2709      C2714   1.404       .  A
C2710      C2711   1.412       .  A
C2711      C2712   1.396       .  A
C2711      H2720   1.077       .  S
C2712      C2713   1.410       .  A
C2712      H2721   1.078       .  S
C2713      C2714   1.413       .  A
C2714      H2722   1.085       .  S
C2723      C2724   1.410       .  A
C2723      C2728   1.411       .  A
C2724      C2725   1.392       .  A
C2724      H2737   1.083       .  S
C2725      C2726   1.406       .  A
C2725      H2738   1.081       .  S
C2726      C2732   1.418       .  A
C2726      C2727   1.417       .  A
C2727      C2729   1.401       .  A
C2727      C2728   1.402       .  A
C2728      H2739   1.083       .  S
C2729      C2730   1.393       .  A
C2729      H2740   1.084       .  S
C2730      C2731   1.401       .  A
C2730      H2741   1.084       .  S
C2731      C2732   1.415       .  A
C2731      C2736   1.399       .  A
C2732      C2733   1.411       .  A
C2733      C2734   1.396       .  A
C2733      H2742   1.081       .  S
C2734      C2735   1.403       .  A
C2734      H2743   1.083       .  S
C2735      C2736   1.407       .  A
C2736      H2744   1.085       .  S
C2745      C2746   1.396       .  A
C2745      C2750   1.398       .  A
C2746      C2747   1.393       .  A
C2746      H2759   1.084       .  S
C2747      C2748   1.415       .  A
C2747      H2760   1.077       .  S
C2748      C2754   1.428       .  A
C2748      C2749   1.423       .  A
C2749      C2751   1.399       .  A
C2749      C2750   1.405       .  A
C2750      H2761   1.085       .  S
C2751      C2752   1.391       .  A
C2751      H2762   1.084       .  S
C2752      C2753   1.401       .  A
C2752      H2763   1.084       .  S
C2753      C2754   1.420       .  A
C2753      C2758   1.407       .  A
C2754      C2755   1.410       .  A
C2755      C2756   1.391       .  A
C2755      H2764   1.077       .  S
C2756      C2757   1.410       .  A
C2756      H2765   1.083       .  S
C2757      C2758   1.410       .  A
C2758      H2766   1.080       .  S
C2767      C2768   1.411       .  A
C2767      C2772   1.409       .  A
C2768      C2769   1.398       .  A
C2768      H2781   1.080       .  S
C2769      C2770   1.412       .  A
C2769      H2782   1.078       .  S
C2770      C2776   1.432       .  A
C2770      C2771   1.420       .  A
C2771      C2773   1.399       .  A
C2771      C2772   1.404       .  A
C2772      H2783   1.084       .  S
C2773      C2774   1.389       .  A
C2773      H2784   1.084       .  S
C2774      C2775   1.399       .  A
C2774      H2785   1.084       .  S
C2775      C2776   1.423       .  A
C2775      C2780   1.404       .  A
C2776      C2777   1.417       .  A
C2777      C2778   1.399       .  A
C2777      H2786   1.077       .  S
C2778      C2779   1.400       .  A
C2778      H2787   1.083       .  S
C2779      C2780   1.400       .  A
C2780      H2788   1.085       .  S
C2789      C2790   1.399       .  A
C2789      C2794   1.404       .  A
C2790      C2791   1.398       .  A
C2790      H2803   1.083       .  S
C2791      C2792   1.415       .  A
C2791      H2804   1.077       .  S
C2792      C2798   1.435       .  A
C2792      C2793   1.424       .  A
C2793      C2795   1.401       .  A
C2793      C2794   1.413       .  A
C2794      H2805   1.084       .  S
C2795      C2796   1.394       .  A
C2795      H2806   1.084       .  S
C2796      C2797   1.401       .  A
C2796      H2807   1.084       .  S
C2797      C2798   1.421       .  A
C2797      C2802   1.412       .  A
C2798      C2799   1.413       .  A
C2799      C2800   1.397       .  A
C2799      H2808   1.077       .  S
C2800      C2801   1.408       .  A
C2800      H2809   1.083       .  S
C2801      C2802   1.412       .  A
C2802      H2810   1.083       .  S
C2811      C2812   1.402       .  A
C2811      C2816   1.400       .  A
C2812      C2813   1.402       .  A
C2812      H2825   1.083       .  S
C2813      C2814   1.416       .  A
C2813      H2826   1.078       .  S
C2814      C2820   1.433       .  A
C2814      C2815   1.422       .  A
C2815      C2817   1.398       .  A
C2815      C2816   1.404       .  A
C2816      H2827   1.085       .  S
C2817      C2818   1.389       .  A
C2817      H2828   1.084       .  S
C2818      C2819   1.400       .  A
C2818      H2829   1.084       .  S
C2819      C2820   1.420       .  A
C2819      C2824   1.405       .  A
C2820      C2821   1.413       .  A
C2821      C2822   1.401       .  A
C2821      H2830   1.078       .  S
C2822      C2823   1.412       .  A
C2822      H2831   1.083       .  S
C2823      C2824   1.412       .  A
C2824      H2832   1.079       .  S
C2833      C2834   1.397       .  A
C2833      C2838   1.400       .  A
C2834      C2835   1.393       .  A
C2834      H2847   1.084       .  S
C2835      C2836   1.414       .  A
C2835      H2848   1.077       .  S
C2836      C2842   1.429       .  A
C2836      C2837   1.424       .  A
C2837      C2839   1.399       .  A
C2837      C2838   1.407       .  A
C2838      H2849   1.084       .  S
C2839      C2840   1.391       .  A
C2839      H2850   1.084       .  S
C2840      C2841   1.400       .  A
C2840      H2851   1.084       .  S
C2841      C2842   1.419       .  A
C2841      C2846   1.404       .  A
C2842      C2843   1.412       .  A
C2843      C2844   1.395       .  A
C2843      H2852   1.077       .  S
C2844      C2845   1.409       .  A
C2844      H2853   1.080       .  S
C2845      C2846   1.411       .  A
C2846      H2854   1.084       .  S
C2855      C2856   1.405       .  A
C2855      C2860   1.408       .  A
C2856      C2857   1.393       .  A
C2856      H2869   1.083       .  S
C2857      C2858   1.410       .  A
C2857      H2870   1.080       .  S
C2858      C2864   1.422       .  A
C2858      C2859   1.417       .  A
C2859      C2861   1.402       .  A
C2859      C2860   1.409       .  A
C2860      H2871   1.084       .  S
C2861      C2862   1.397       .  A
C2861      H2872   1.084       .  S
C2862      C2863   1.402       .  A
C2862      H2873   1.084       .  S
C2863      C2864   1.416       .  A
C2863      C2868   1.408       .  A
C2864      C2865   1.405       .  A
C2865      C2866   1.391       .  A
C2865      H2874   1.080       .  S
C2866      C2867   1.414       .  A
C2866      H2875   1.076       .  S
C2867      C2868   1.415       .  A
C2868      H2876   1.084       .  S
C2877      C2878   1.400       .  A
C2877      C2882   1.397       .  A
C2878      C2879   1.397       .  A
C2878      H2891   1.083       .  S
C2879      C2880   1.415       .  A
C2879      H2892   1.078       .  S
C2880      C2886   1.427       .  A
C2880      C2881   1.423       .  A
C2881      C2883   1.397       .  A
C2881      C2882   1.399       .  A
C2882      H2893   1.085       .  S
C2883      C2884   1.386       .  A
C2883      H2894   1.084       .  S
C2884      C2885   1.399       .  A
C2884      H2895   1.084       .  S
C2885      C2886   1.419       .  A
C2885      C2890   1.399       .  A
C2886      C2887   1.413       .  A
C2887      C2888   1.397       .  A
C2887      H2896   1.078       .  S
C2888      C2889   1.410       .  A
C2888      H2897   1.083       .  S
C2889      C2890   1.410       .  A
C2890      H2898   1.080       .  S
C2899      C2900   1.398       .  A
C2899      C2904   1.401       .  A
C2900      C2901   1.393       .  A
C2900      H2913   1.084       .  S
C2901      C2902   1.414       .  A
C2901      H2914   1.077       .  S
C2902      C2908   1.431       .  A
C2902      C2903   1.424       .  A
C2903      C2905   1.399       .  A
C2903      C2904   1.409       .  A
C2904      H2915   1.084       .  S
C2905      C2906   1.392       .  A
C2905      H2916   1.084       .  S
C2906      C2907   1.402       .  A
C2906      H2917   1.084       .  S
C2907      C2908   1.419       .  A
C2907      C2912   1.408       .  A
C2908      C2909   1.412       .  A
C2909      C2910   1.394       .  A
C2909      H2918   1.077       .  S
C2910      C2911   1.412       .  A
C2910      H2919   1.084       .  S
C2911      C2912   1.416       .  A
C2912      H2920   1.081       .  S
C2921      C2922   1.409       .  A
C2921      C2926   1.412       .  A
C2922      C2923   1.394       .  A
C2922      H2935   1.079       .  S
C2923      C2924   1.411       .  A
C2923      H2936   1.077       .  S
C2924      C2930   1.428       .  A
C2924      C2925   1.419       .  A
C2925      C2927   1.400       .  A
C2925      C2926   1.404       .  A
C2926      H2937   1.084       .  S
C2927      C2928   1.391       .  A
C2927      H2938   1.084       .  S
C2928      C2929   1.400       .  A
C2928      H2939   1.084       .  S
C2929      C2930   1.423       .  A
C2929      C2934   1.405       .  A
C2930      C2931   1.416       .  A
C2931      C2932   1.394       .  A
C2931      H2940   1.077       .  S
C2932      C2933   1.395       .  A
C2932      H2941   1.083       .  S
C2933      C2934   1.399       .  A
C2934      H2942   1.085       .  S
C2943      C2944   1.410       .  A
C2943      C2948   1.419       .  A
C2944      C2945   1.390       .  A
C2944      H2957   1.076       .  S
C2945      C2946   1.406       .  A
C2945      H2958   1.080       .  S
C2946      C2952   1.421       .  A
C2946      C2947   1.415       .  A
C2947      C2949   1.405       .  A
C2947      C2948   1.411       .  A
C2948      H2959   1.084       .  S
C2949      C2950   1.401       .  A
C2949      H2960   1.084       .  S
C2950      C2951   1.404       .  A
C2950      H2961   1.084       .  S
C2951      C2952   1.418       .  A
C2951      C2956   1.413       .  A
C2952      C2953   1.408       .  A
C2953      C2954   1.389       .  A
C2953      H2962   1.080       .  S
C2954      C2955   1.403       .  A
C2954      H2963   1.084       .  S
C2955      C2956   1.411       .  A
C2956      H2964   1.084       .  S
C2965      C2966   1.413       .  A
C2965      C2970   1.416       .  A
C2966      C2967   1.390       .  A
C2966      H2979   1.076       .  S
C2967      C2968   1.405       .  A
C2967      H2980   1.079       .  S
C2968      C2974   1.424       .  A
C2968      C2969   1.417       .  A
C2969      C2971   1.402       .  A
C2969      C2970   1.409       .  A
C2970      H2981   1.084       .  S
C2971      C2972   1.396       .  A
C2971      H2982   1.084       .  S
C2972      C2973   1.402       .  A
C2972      H2983   1.084       .  S
C2973      C2974   1.418       .  A
C2973      C2978   1.409       .  A
C2974      C2975   1.411       .  A
C2975      C2976   1.393       .  A
C2975      H2984   1.079       .  S
C2976      C2977   1.404       .  A
C2976      H2985   1.083       .  S
C2977      C2978   1.408       .  A
C2978      H2986   1.084       .  S
C2987      C2988   1.402       .  A
C2987      C2992   1.400       .  A
C2988      C2989   1.400       .  A
C2988      H3001   1.084       .  S
C2989      C2990   1.415       .  A
C2989      H3002   1.078       .  S
C2990      C2996   1.433       .  A
C2990      C2991   1.423       .  A
C2991      C2993   1.398       .  A
C2991      C2992   1.406       .  A
C2992      H3003   1.084       .  S
C2993      C2994   1.389       .  A
C2993      H3004   1.084       .  S
C2994      C2995   1.399       .  A
C2994      H3005   1.084       .  S
C2995      C2996   1.419       .  A
C2995      C3000   1.404       .  A
C2996      C2997   1.414       .  A
C2997      C2998   1.401       .  A
C2997      H3006   1.078       .  S
C2998      C2999   1.412       .  A
C2998      H3007   1.080       .  S
C2999      C3000   1.410       .  A
C3000      H3008   1.085       .  S
C3009      C3010   1.412       .  A
C3009      C3014   1.414       .  A
C3010      C3011   1.397       .  A
C3010      H3023   1.077       .  S
C3011      C3012   1.410       .  A
C3011      H3024   1.079       .  S
C3012      C3018   1.427       .  A
C3012      C3013   1.416       .  A
C3013      C3015   1.401       .  A
C3013      C3014   1.404       .  A
C3014      H3025   1.084       .  S
C3015      C3016   1.393       .  A
C3015      H3026   1.084       .  S
C3016      C3017   1.400       .  A
C3016      H3027   1.084       .  S
C3017      C3018   1.422       .  A
C3017      C3022   1.408       .  A
C3018      C3019   1.412       .  A
C3019      C3020   1.395       .  A
C3019      H3028   1.079       .  S
C3020      C3021   1.401       .  A
C3020      H3029   1.084       .  S
C3021      C3022   1.402       .  A
C3022      H3030   1.084       .  S
C3031      C3032   1.404       .  A
C3031      C3036   1.409       .  A
C3032      C3033   1.394       .  A
C3032      H3045   1.083       .  S
C3033      C3034   1.411       .  A
C3033      H3046   1.079       .  S
C3034      C3040   1.427       .  A
C3034      C3035   1.420       .  A
C3035      C3037   1.402       .  A
C3035      C3036   1.411       .  A
C3036      H3047   1.084       .  S
C3037      C3038   1.397       .  A
C3037      H3048   1.084       .  S
C3038      C3039   1.402       .  A
C3038      H3049   1.084       .  S
C3039      C3040   1.417       .  A
C3039      C3044   1.410       .  A
C3040      C3041   1.408       .  A
C3041      C3042   1.394       .  A
C3041      H3050   1.079       .  S
C3042      C3043   1.413       .  A
C3042      H3051   1.075       .  S
C3043      C3044   1.417       .  A
C3044      H3052   1.084       .  S
C3053      C3054   1.405       .  A
C3053      C3058   1.404       .  A
C3054      C3055   1.402       .  A
C3054      H3067   1.083       .  S
C3055      C3056   1.414       .  A
C3055      H3068   1.079       .  S
C3056      C3062   1.431       .  A
C3056      C3057   1.420       .  A
C3057      C3059   1.399       .  A
C3057      C3058   1.403       .  A
C3058      H3069   1.085       .  S
C3059      C3060   1.389       .  A
C3059      H3070   1.084       .  S
C3060      C3061   1.401       .  A
C3060      H3071   1.084       .  S
C3061      C3062   1.418       .  A
C3061      C3066   1.404       .  A
C3062      C3063   1.411       .  A
C3063      C3064   1.401       .  A
C3063      H3072   1.079       .  S
C3064      C3065   1.413       .  A
C3064      H3073   1.083       .  S
C3065      C3066   1.413       .  A
C3066      H3074   1.076       .  S
C3075      C3076   1.412       .  A
C3075      C3080   1.412       .  A
C3076      C3077   1.394       .  A
C3076      H3089   1.079       .  S
C3077      C3078   1.409       .  A
C3077      H3090   1.078       .  S
C3078      C3084   1.427       .  A
C3078      C3079   1.418       .  A
C3079      C3081   1.400       .  A
C3079      C3080   1.405       .  A
C3080      H3091   1.085       .  S
C3081      C3082   1.392       .  A
C3081      H3092   1.084       .  S
C3082      C3083   1.400       .  A
C3082      H3093   1.084       .  S
C3083      C3084   1.421       .  A
C3083      C3088   1.403       .  A
C3084      C3085   1.415       .  A
C3085      C3086   1.396       .  A
C3085      H3094   1.078       .  S
C3086      C3087   1.398       .  A
C3086      H3095   1.083       .  S
C3087      C3088   1.401       .  A
C3088      H3096   1.085       .  S
C3097      C3098   1.406       .  A
C3097      C3102   1.408       .  A
C3098      C3099   1.397       .  A
C3098      H3111   1.083       .  S
C3099      C3100   1.411       .  A
C3099      H3112   1.079       .  S
C3100      C3106   1.428       .  A
C3100      C3101   1.419       .  A
C3101      C3103   1.401       .  A
C3101      C3102   1.409       .  A
C3102      H3113   1.083       .  S
C3103      C3104   1.394       .  A
C3103      H3114   1.084       .  S
C3104      C3105   1.401       .  A
C3104      H3115   1.084       .  S
C3105      C3106   1.417       .  A
C3105      C3110   1.406       .  A
C3106      C3107   1.409       .  A
C3107      C3108   1.397       .  A
C3107      H3116   1.079       .  S
C3108      C3109   1.413       .  A
C3108      H3117   1.076       .  S
C3109      C3110   1.415       .  A
C3110      H3118   1.084       .  S
C3119      C3120   1.398       .  A
C3119      C3124   1.400       .  A
C3120      C3121   1.400       .  A
C3120      H3133   1.083       .  S
C3121      C3122   1.418       .  A
C3121      H3134   1.077       .  S
C3122      C3128   1.435       .  A
C3122      C3123   1.423       .  A
C3123      C3125   1.400       .  A
C3123      C3124   1.408       .  A
C3124      H3135   1.085       .  S
C3125      C3126   1.391       .  A
C3125      H3136   1.084       .  S
C3126      C3127   1.400       .  A
C3126      H3137   1.084       .  S
C3127      C3128   1.422       .  A
C3127      C3132   1.410       .  A
C3128      C3129   1.411       .  A
C3129      C3130   1.397       .  A
C3129      H3138   1.077       .  S
C3130      C3131   1.412       .  A
C3130      H3139   1.082       .  S
C3131      C3132   1.411       .  A
C3132      H3140   1.082       .  S
C3141      C3142   1.411       .  A
C3141      C3146   1.411       .  A
C3142      C3143   1.394       .  A
C3142      H3155   1.084       .  S
C3143      C3144   1.411       .  A
C3143      H3156   1.077       .  S
C3144      C3150   1.432       .  A
C3144      C3145   1.421       .  A
C3145      C3147   1.400       .  A
C3145      C3146   1.409       .  A
C3146      H3157   1.080       .  S
C3147      C3148   1.391       .  A
C3147      H3158   1.084       .  S
C3148      C3149   1.399       .  A
C3148      H3159   1.084       .  S
C3149      C3150   1.423       .  A
C3149      C3154   1.407       .  A
C3150      C3151   1.416       .  A
C3151      C3152   1.397       .  A
C3151      H3160   1.077       .  S
C3152      C3153   1.398       .  A
C3152      H3161   1.084       .  S
C3153      C3154   1.399       .  A
C3154      H3162   1.084       .  S
C3163      C3164   1.412       .  A
C3163      C3168   1.410       .  A
C3164      C3165   1.396       .  A
C3164      H3177   1.080       .  S
C3165      C3166   1.410       .  A
C3165      H3178   1.078       .  S
C3166      C3172   1.430       .  A
C3166      C3167   1.420       .  A
C3167      C3169   1.399       .  A
C3167      C3168   1.406       .  A
C3168      H3179   1.084       .  S
C3169      C3170   1.390       .  A
C3169      H3180   1.084       .  S
C3170      C3171   1.399       .  A
C3170      H3181   1.084       .  S
C3171      C3172   1.422       .  A
C3171      C3176   1.404       .  A
C3172      C3173   1.416       .  A
C3173      C3174   1.397       .  A
C3173      H3182   1.077       .  S
C3174      C3175   1.399       .  A
C3174      H3183   1.083       .  S
C3175      C3176   1.400       .  A
C3176      H3184   1.085       .  S
C3185      C3186   1.410       .  A
C3185      C3190   1.415       .  A
C3186      C3187   1.404       .  A
C3186      H3199   1.083       .  S
C3187      C3188   1.414       .  A
C3187      H3200   1.079       .  S
C3188      C3194   1.434       .  A
C3188      C3189   1.418       .  A
C3189      C3191   1.401       .  A
C3189      C3190   1.405       .  A
C3190      H3201   1.082       .  S
C3191      C3192   1.391       .  A
C3191      H3202   1.084       .  S
C3192      C3193   1.400       .  A
C3192      H3203   1.084       .  S
C3193      C3194   1.422       .  A
C3193      C3198   1.408       .  A
C3194      C3195   1.414       .  A
C3195      C3196   1.403       .  A
C3195      H3204   1.079       .  S
C3196      C3197   1.406       .  A
C3196      H3205   1.083       .  S
C3197      C3198   1.406       .  A
C3198      H3206   1.084       .  S
C3207      C3208   1.410       .  A
C3207      C3212   1.413       .  A
C3208      C3209   1.395       .  A
C3208      H3221   1.083       .  S
C3209      C3210   1.411       .  A
C3209      H3222   1.078       .  S
C3210      C3216   1.427       .  A
C3210      C3211   1.419       .  A
C3211      C3213   1.401       .  A
C3211      C3212   1.405       .  A
C3212      H3223   1.081       .  S
C3213      C3214   1.390       .  A
C3213      H3224   1.084       .  S
C3214      C3215   1.399       .  A
C3214      H3225   1.084       .  S
C3215      C3216   1.422       .  A
C3215      C3220   1.404       .  A
C3216      C3217   1.414       .  A
C3217      C3218   1.396       .  A
C3217      H3226   1.078       .  S
C3218      C3219   1.399       .  A
C3218      H3227   1.084       .  S
C3219      C3220   1.399       .  A
C3220      H3228   1.085       .  S
C3229      C3230   1.411       .  A
C3229      C3234   1.414       .  A
C3230      C3231   1.392       .  A
C3230      H3243   1.078       .  S
C3231      C3232   1.408       .  A
C3231      H3244   1.079       .  S
C3232      C3238   1.424       .  A
C3232      C3233   1.417       .  A
C3233      C3235   1.401       .  A
C3233      C3234   1.407       .  A
C3234      H3245   1.084       .  S
C3235      C3236   1.395       .  A
C3235      H3246   1.084       .  S
C3236      C3237   1.401       .  A
C3236      H3247   1.084       .  S
C3237      C3238   1.421       .  A
C3237      C3242   1.408       .  A
C3238      C3239   1.413       .  A
C3239      C3240   1.392       .  A
C3239      H3248   1.078       .  S
C3240      C3241   1.399       .  A
C3240      H3249   1.084       .  S
C3241      C3242   1.403       .  A
C3242      H3250   1.084       .  S
C3251      C3252   1.413       .  A
C3251      C3256   1.410       .  A
C3252      C3253   1.400       .  A
C3252      H3265   1.083       .  S
C3253      C3254   1.411       .  A
C3253      H3266   1.079       .  S
C3254      C3260   1.430       .  A
C3254      C3255   1.419       .  A
C3255      C3257   1.399       .  A
C3255      C3256   1.402       .  A
C3256      H3267   1.078       .  S
C3257      C3258   1.388       .  A
C3257      H3268   1.084       .  S
C3258      C3259   1.398       .  A
C3258      H3269   1.084       .  S
C3259      C3260   1.419       .  A
C3259      C3264   1.400       .  A
C3260      C3261   1.415       .  A
C3261      C3262   1.404       .  A
C3261      H3270   1.079       .  S
C3262      C3263   1.407       .  A
C3262      H3271   1.083       .  S
C3263      C3264   1.404       .  A
C3264      H3272   1.084       .  S
C3273      C3274   1.399       .  A
C3273      C3278   1.400       .  A
C3274      C3275   1.397       .  A
C3274      H3287   1.084       .  S
C3275      C3276   1.416       .  A
C3275      H3288   1.077       .  S
C3276      C3282   1.433       .  A
C3276      C3277   1.423       .  A
C3277      C3279   1.399       .  A
C3277      C3278   1.408       .  A
C3278      H3289   1.085       .  S
C3279      C3280   1.391       .  A
C3279      H3290   1.084       .  S
C3280      C3281   1.401       .  A
C3280      H3291   1.084       .  S
C3281      C3282   1.421       .  A
C3281      C3286   1.409       .  A
C3282      C3283   1.411       .  A
C3283      C3284   1.395       .  A
C3283      H3292   1.077       .  S
C3284      C3285   1.411       .  A
C3284      H3293   1.083       .  S
C3285      C3286   1.413       .  A
C3286      H3294   1.080       .  S
C3295      C3296   1.404       .  A
C3295      C3300   1.404       .  A
C3296      C3297   1.402       .  A
C3296      H3309   1.083       .  S
C3297      C3298   1.415       .  A
C3297      H3310   1.079       .  S
C3298      C3304   1.434       .  A
C3298      C3299   1.421       .  A
C3299      C3301   1.399       .  A
C3299      C3300   1.406       .  A
C3300      H3311   1.085       .  S
C3301      C3302   1.391       .  A
C3301      H3312   1.084       .  S
C3302      C3303   1.402       .  A
C3302      H3313   1.084       .  S
C3303      C3304   1.418       .  A
C3303      C3308   1.408       .  A
C3304      C3305   1.411       .  A
C3305      C3306   1.401       .  A
C3305      H3314   1.079       .  S
C3306      C3307   1.415       .  A
C3306      H3315   1.083       .  S
C3307      C3308   1.415       .  A
C3308      H3316   1.074       .  S
C3317      C3318   1.413       .  A
C3317      C3322   1.415       .  A
C3318      C3319   1.397       .  A
C3318      H3331   1.078       .  S
C3319      C3320   1.410       .  A
C3319      H3332   1.078       .  S
C3320      C3326   1.434       .  A
C3320      C3321   1.420       .  A
C3321      C3323   1.401       .  A
C3321      C3322   1.410       .  A
C3322      H3333   1.084       .  S
C3323      C3324   1.393       .  A
C3323      H3334   1.084       .  S
C3324      C3325   1.401       .  A
C3324      H3335   1.084       .  S
C3325      C3326   1.423       .  A
C3325      C3330   1.410       .  A
C3326      C3327   1.416       .  A
C3327      C3328   1.399       .  A
C3327      H3336   1.077       .  S
C3328      C3329   1.400       .  A
C3328      H3337   1.083       .  S
C3329      C3330   1.403       .  A
C3330      H3338   1.084       .  S
C3339      C3340   1.413       .  A
C3339      C3344   1.413       .  A
C3340      C3341   1.395       .  A
C3340      H3353   1.081       .  S
C3341      C3342   1.408       .  A
C3341      H3354   1.079       .  S
C3342      C3348   1.427       .  A
C3342      C3343   1.418       .  A
C3343      C3345   1.402       .  A
C3343      C3344   1.410       .  A
C3344      H3355   1.084       .  S
C3345      C3346   1.396       .  A
C3345      H3356   1.084       .  S
C3346      C3347   1.402       .  A
C3346      H3357   1.084       .  S
C3347      C3348   1.418       .  A
C3347      C3352   1.409       .  A
C3348      C3349   1.412       .  A
C3349      C3350   1.396       .  A
C3349      H3358   1.079       .  S
C3350      C3351   1.403       .  A
C3350      H3359   1.083       .  S
C3351      C3352   1.408       .  A
C3352      H3360   1.084       .  S
C3361      C3362   1.411       .  A
C3361      C3366   1.413       .  A
C3362      C3363   1.397       .  A
C3362      H3375   1.083       .  S
C3363      C3364   1.411       .  A
C3363      H3376   1.078       .  S
C3364      C3370   1.431       .  A
C3364      C3365   1.420       .  A
C3365      C3367   1.401       .  A
C3365      C3366   1.408       .  A
C3366      H3377   1.081       .  S
C3367      C3368   1.392       .  A
C3367      H3378   1.084       .  S
C3368      C3369   1.400       .  A
C3368      H3379   1.084       .  S
C3369      C3370   1.423       .  A
C3369      C3374   1.407       .  A
C3370      C3371   1.415       .  A
C3371      C3372   1.398       .  A
C3371      H3380   1.078       .  S
C3372      C3373   1.400       .  A
C3372      H3381   1.083       .  S
C3373      C3374   1.400       .  A
C3374      H3382   1.084       .  S
C3383      C3384   1.411       .  A
C3383      C3388   1.413       .  A
C3384      C3385   1.399       .  A
C3384      H3397   1.079       .  S
C3385      C3386   1.410       .  A
C3385      H3398   1.080       .  S
C3386      C3392   1.426       .  A
C3386      C3387   1.415       .  A
C3387      C3389   1.401       .  A
C3387      C3388   1.403       .  A
C3388      H3399   1.081       .  S
C3389      C3390   1.392       .  A
C3389      H3400   1.084       .  S
C3390      C3391   1.400       .  A
C3390      H3401   1.084       .  S
C3391      C3392   1.421       .  A
C3391      C3396   1.405       .  A
C3392      C3393   1.412       .  A
C3393      C3394   1.396       .  A
C3393      H3402   1.079       .  S
C3394      C3395   1.402       .  A
C3394      H3403   1.083       .  S
C3395      C3396   1.402       .  A
C3396      H3404   1.084       .  S
C3405      C3406   1.413       .  A
C3405      C3410   1.419       .  A
C3406      C3407   1.391       .  A
C3406      H3419   1.071       .  S
C3407      C3408   1.406       .  A
C3407      H3420   1.079       .  S
C3408      C3414   1.425       .  A
C3408      C3409   1.415       .  A
C3409      C3411   1.402       .  A
C3409      C3410   1.408       .  A
C3410      H3421   1.083       .  S
C3411      C3412   1.396       .  A
C3411      H3422   1.084       .  S
C3412      C3413   1.402       .  A
C3412      H3423   1.084       .  S
C3413      C3414   1.420       .  A
C3413      C3418   1.410       .  A
C3414      C3415   1.411       .  A
C3415      C3416   1.390       .  A
C3415      H3424   1.078       .  S
C3416      C3417   1.400       .  A
C3416      H3425   1.084       .  S
C3417      C3418   1.406       .  A
C3418      H3426   1.084       .  S
C3427      C3428   1.398       .  A
C3427      C3432   1.400       .  A
C3428      C3429   1.395       .  A
C3428      H3441   1.084       .  S
C3429      C3430   1.415       .  A
C3429      H3442   1.078       .  S
C3430      C3436   1.428       .  A
C3430      C3431   1.423       .  A
C3431      C3433   1.399       .  A
C3431      C3432   1.406       .  A
C3432      H3443   1.084       .  S
C3433      C3434   1.391       .  A
C3433      H3444   1.084       .  S
C3434      C3435   1.400       .  A
C3434      H3445   1.084       .  S
C3435      C3436   1.418       .  A
C3435      C3440   1.404       .  A
C3436      C3437   1.410       .  A
C3437      C3438   1.395       .  A
C3437      H3446   1.078       .  S
C3438      C3439   1.413       .  A
C3438      H3447   1.077       .  S
C3439      C3440   1.413       .  A
C3440      H3448   1.084       .  S
C3449      C3450   1.410       .  A
C3449      C3454   1.410       .  A
C3450      C3451   1.400       .  A
C3450      H3463   1.080       .  S
C3451      C3452   1.414       .  A
C3451      H3464   1.078       .  S
C3452      C3458   1.432       .  A
C3452      C3453   1.419       .  A
C3453      C3455   1.398       .  A
C3453      C3454   1.399       .  A
C3454      H3465   1.085       .  S
C3455      C3456   1.386       .  A
C3455      H3466   1.084       .  S
C3456      C3457   1.397       .  A
C3456      H3467   1.084       .  S
C3457      C3458   1.424       .  A
C3457      C3462   1.401       .  A
C3458      C3459   1.417       .  A
C3459      C3460   1.400       .  A
C3459      H3468   1.077       .  S
C3460      C3461   1.399       .  A
C3460      H3469   1.083       .  S
C3461      C3462   1.397       .  A
C3462      H3470   1.085       .  S
C3471      C3472   1.415       .  A
C3471      C3476   1.417       .  A
C3472      C3473   1.391       .  A
C3472      H3485   1.075       .  S
C3473      C3474   1.404       .  A
C3473      H3486   1.080       .  S
C3474      C3480   1.423       .  A
C3474      C3475   1.416       .  A
C3475      C3477   1.403       .  A
C3475      C3476   1.413       .  A
C3476      H3487   1.084       .  S
C3477      C3478   1.400       .  A
C3477      H3488   1.084       .  S
C3478      C3479   1.404       .  A
C3478      H3489   1.084       .  S
C3479      C3480   1.416       .  A
C3479      C3484   1.411       .  A
C3480      C3481   1.410       .  A
C3481      C3482   1.394       .  A
C3481      H3490   1.080       .  S
C3482      C3483   1.405       .  A
C3482      H3491   1.083       .  S
C3483      C3484   1.412       .  A
C3484      H3492   1.083       .  S
C3493      C3494   1.410       .  A
C3493      C3498   1.413       .  A
C3494      C3495   1.395       .  A
C3494      H3507   1.083       .  S
C3495      C3496   1.412       .  A
C3495      H3508   1.077       .  S
C3496      C3502   1.434       .  A
C3496      C3497   1.421       .  A
C3497      C3499   1.401       .  A
C3497      C3498   1.411       .  A
C3498      H3509   1.080       .  S
C3499      C3500   1.392       .  A
C3499      H3510   1.084       .  S
C3500      C3501   1.400       .  A
C3500      H3511   1.084       .  S
C3501      C3502   1.424       .  A
C3501      C3506   1.410       .  A
C3502      C3503   1.416       .  A
C3503      C3504   1.397       .  A
C3503      H3512   1.077       .  S
C3504      C3505   1.398       .  A
C3504      H3513   1.084       .  S
C3505      C3506   1.401       .  A
C3506      H3514   1.084       .  S
C3515      C3516   1.410       .  A
C3515      C3520   1.413       .  A
C3516      C3517   1.397       .  A
C3516      H3529   1.083       .  S
C3517      C3518   1.413       .  A
C3517      H3530   1.077       .  S
C3518      C3524   1.433       .  A
C3518      C3519   1.420       .  A
C3519      C3521   1.401       .  A
C3519      C3520   1.408       .  A
C3520      H3531   1.080       .  S
C3521      C3522   1.391       .  A
C3521      H3532   1.084       .  S
C3522      C3523   1.399       .  A
C3522      H3533   1.084       .  S
C3523      C3524   1.424       .  A
C3523      C3528   1.407       .  A
C3524      C3525   1.416       .  A
C3525      C3526   1.397       .  A
C3525      H3534   1.077       .  S
C3526      C3527   1.399       .  A
C3526      H3535   1.083       .  S
C3527      C3528   1.400       .  A
C3528      H3536   1.085       .  S
C3537      C3538   1.408       .  A
C3537      C3542   1.413       .  A
C3538      C3539   1.397       .  A
C3538      H3551   1.080       .  S
C3539      C3540   1.414       .  A
C3539      H3552   1.078       .  S
C3540      C3546   1.428       .  A
C3540      C3541   1.418       .  A
C3541      C3543   1.400       .  A
C3541      C3542   1.401       .  A
C3542      H3553   1.085       .  S
C3543      C3544   1.390       .  A
C3543      H3554   1.084       .  S
C3544      C3545   1.399       .  A
C3544      H3555   1.084       .  S
C3545      C3546   1.423       .  A
C3545      C3550   1.404       .  A
C3546      C3547   1.414       .  A
C3547      C3548   1.395       .  A
C3547      H3556   1.078       .  S
C3548      C3549   1.399       .  A
C3548      H3557   1.083       .  S
C3549      C3550   1.401       .  A
C3550      H3558   1.085       .  S
C3559      C3560   1.414       .  A
C3559      C3564   1.410       .  A
C3560      C3561   1.391       .  A
C3560      H3573   1.079       .  S
C3561      C3562   1.407       .  A
C3561      H3574   1.077       .  S
C3562      C3568   1.428       .  A
C3562      C3563   1.420       .  A
C3563      C3565   1.400       .  A
C3563      C3564   1.408       .  A
C3564      H3575   1.084       .  S
C3565      C3566   1.392       .  A
C3565      H3576   1.084       .  S
C3566      C3567   1.400       .  A
C3566      H3577   1.084       .  S
C3567      C3568   1.421       .  A
C3567      C3572   1.405       .  A
C3568      C3569   1.416       .  A
C3569      C3570   1.395       .  A
C3569      H3578   1.077       .  S
C3570      C3571   1.398       .  A
C3570      H3579   1.084       .  S
C3571      C3572   1.402       .  A
C3572      H3580   1.085       .  S
C3581      C3582   1.414       .  A
C3581      C3586   1.418       .  A
C3582      C3583   1.394       .  A
C3582      H3595   1.075       .  S
C3583      C3584   1.406       .  A
C3583      H3596   1.080       .  S
C3584      C3590   1.427       .  A
C3584      C3585   1.416       .  A
C3585      C3587   1.403       .  A
C3585      C3586   1.413       .  A
C3586      H3597   1.083       .  S
C3587      C3588   1.399       .  A
C3587      H3598   1.084       .  S
C3588      C3589   1.403       .  A
C3588      H3599   1.084       .  S
C3589      C3590   1.419       .  A
C3589      C3594   1.414       .  A
C3590      C3591   1.410       .  A
C3591      C3592   1.394       .  A
C3591      H3600   1.079       .  S
C3592      C3593   1.403       .  A
C3592      H3601   1.083       .  S
C3593      C3594   1.410       .  A
C3594      H3602   1.084       .  S
C3603      C3604   1.399       .  A
C3603      C3608   1.403       .  A
C3604      C3605   1.394       .  A
C3604      H3617   1.083       .  S
C3605      C3606   1.414       .  A
C3605      H3618   1.077       .  S
C3606      C3612   1.430       .  A
C3606      C3607   1.422       .  A
C3607      C3609   1.401       .  A
C3607      C3608   1.411       .  A
C3608      H3619   1.084       .  S
C3609      C3610   1.394       .  A
C3609      H3620   1.084       .  S
C3610      C3611   1.402       .  A
C3610      H3621   1.084       .  S
C3611      C3612   1.421       .  A
C3611      C3616   1.411       .  A
C3612      C3613   1.411       .  A
C3613      C3614   1.392       .  A
C3613      H3622   1.077       .  S
C3614      C3615   1.408       .  A
C3614      H3623   1.083       .  S
C3615      C3616   1.413       .  A
C3616      H3624   1.080       .  S
C3625      C3626   1.413       .  A
C3625      C3630   1.414       .  A
C3626      C3627   1.395       .  A
C3626      H3639   1.083       .  S
C3627      C3628   1.411       .  A
C3627      H3640   1.077       .  S
C3628      C3634   1.431       .  A
C3628      C3629   1.419       .  A
C3629      C3631   1.401       .  A
C3629      C3630   1.407       .  A
C3630      H3641   1.077       .  S
C3631      C3632   1.391       .  A
C3631      H3642   1.084       .  S
C3632      C3633   1.399       .  A
C3632      H3643   1.084       .  S
C3633      C3634   1.422       .  A
C3633      C3638   1.407       .  A
C3634      C3635   1.414       .  A
C3635      C3636   1.397       .  A
C3635      H3644   1.078       .  S
C3636      C3637   1.401       .  A
C3636      H3645   1.083       .  S
C3637      C3638   1.402       .  A
C3638      H3646   1.084       .  S
C3647      C3648   1.400       .  A
C3647      C3652   1.402       .  A
C3648      C3649   1.397       .  A
C3648      H3661   1.083       .  S
C3649      C3650   1.415       .  A
C3649      H3662   1.077       .  S
C3650      C3656   1.431       .  A
C3650      C3651   1.422       .  A
C3651      C3653   1.400       .  A
C3651      C3652   1.407       .  A
C3652      H3663   1.084       .  S
C3653      C3654   1.392       .  A
C3653      H3664   1.084       .  S
C3654      C3655   1.400       .  A
C3654      H3665   1.084       .  S
C3655      C3656   1.418       .  A
C3655      C3660   1.407       .  A
C3656      C3657   1.409       .  A
C3657      C3658   1.397       .  A
C3657      H3666   1.078       .  S
C3658      C3659   1.415       .  A
C3658      H3667   1.076       .  S
C3659      C3660   1.416       .  A
C3660      H3668   1.084       .  S
C3669      C3670   1.401       .  A
C3669      C3674   1.405       .  A
C3670      C3671   1.394       .  A
C3670      H3683   1.083       .  S
C3671      C3672   1.413       .  A
C3671      H3684   1.077       .  S
C3672      C3678   1.430       .  A
C3672      C3673   1.422       .  A
C3673      C3675   1.401       .  A
C3673      C3674   1.413       .  A
C3674      H3685   1.084       .  S
C3675      C3676   1.395       .  A
C3675      H3686   1.084       .  S
C3676      C3677   1.402       .  A
C3676      H3687   1.084       .  S
C3677      C3678   1.420       .  A
C3677      C3682   1.411       .  A
C3678      C3679   1.411       .  A
C3679      C3680   1.393       .  A
C3679      H3688   1.077       .  S
C3680      C3681   1.407       .  A
C3680      H3689   1.083       .  S
C3681      C3682   1.414       .  A
C3682      H3690   1.082       .  S
C3691      C3692   1.398       .  A
C3691      C3696   1.400       .  A
C3692      C3693   1.397       .  A
C3692      H3705   1.083       .  S
C3693      C3694   1.416       .  A
C3693      H3706   1.077       .  S
C3694      C3700   1.429       .  A
C3694      C3695   1.422       .  A
C3695      C3697   1.399       .  A
C3695      C3696   1.401       .  A
C3696      H3707   1.085       .  S
C3697      C3698   1.388       .  A
C3697      H3708   1.084       .  S
C3698      C3699   1.399       .  A
C3698      H3709   1.084       .  S
C3699      C3700   1.418       .  A
C3699      C3704   1.402       .  A
C3700      C3701   1.410       .  A
C3701      C3702   1.396       .  A
C3701      H3710   1.077       .  S
C3702      C3703   1.413       .  A
C3702      H3711   1.077       .  S
C3703      C3704   1.414       .  A
C3704      H3712   1.085       .  S
C3713      C3714   1.412       .  A
C3713      C3718   1.412       .  A
C3714      C3715   1.396       .  A
C3714      H3727   1.078       .  S
C3715      C3716   1.411       .  A
C3715      H3728   1.077       .  S
C3716      C3722   1.430       .  A
C3716      C3717   1.419       .  A
C3717      C3719   1.399       .  A
C3717      C3718   1.404       .  A
C3718      H3729   1.085       .  S
C3719      C3720   1.390       .  A
C3719      H3730   1.084       .  S
C3720      C3721   1.399       .  A
C3720      H3731   1.084       .  S
C3721      C3722   1.422       .  A
C3721      C3726   1.405       .  A
C3722      C3723   1.416       .  A
C3723      C3724   1.397       .  A
C3723      H3732   1.077       .  S
C3724      C3725   1.399       .  A
C3724      H3733   1.084       .  S
C3725      C3726   1.400       .  A
C3726      H3734   1.084       .  S
C3735      C3736   1.400       .  A
C3735      C3740   1.400       .  A
C3736      C3737   1.396       .  A
C3736      H3749   1.083       .  S
C3737      C3738   1.415       .  A
C3737      H3750   1.077       .  S
C3738      C3744   1.430       .  A
C3738      C3739   1.423       .  A
C3739      C3741   1.399       .  A
C3739      C3740   1.406       .  A
C3740      H3751   1.084       .  S
C3741      C3742   1.390       .  A
C3741      H3752   1.084       .  S
C3742      C3743   1.401       .  A
C3742      H3753   1.084       .  S
C3743      C3744   1.420       .  A
C3743      C3748   1.407       .  A
C3744      C3745   1.410       .  A
C3745      C3746   1.393       .  A
C3745      H3754   1.077       .  S
C3746      C3747   1.413       .  A
C3746      H3755   1.083       .  S
C3747      C3748   1.413       .  A
C3748      H3756   1.077       .  S
C3757      C3758   1.398       .  A
C3757      C3762   1.401       .  A
C3758      C3759   1.396       .  A
C3758      H3771   1.084       .  S
C3759      C3760   1.417       .  A
C3759      H3772   1.077       .  S
C3760      C3766   1.432       .  A
C3760      C3761   1.422       .  A
C3761      C3763   1.400       .  A
C3761      C3762   1.407       .  A
C3762      H3773   1.084       .  S
C3763      C3764   1.392       .  A
C3763      H3774   1.084       .  S
C3764      C3765   1.401       .  A
C3764      H3775   1.084       .  S
C3765      C3766   1.422       .  A
C3765      C3770   1.411       .  A
C3766      C3767   1.409       .  A
C3767      C3768   1.393       .  A
C3767      H3776   1.077       .  S
C3768      C3769   1.411       .  A
C3768      H3777   1.081       .  S
C3769      C3770   1.411       .  A
C3770      H3778   1.081       .  S
C3779      C3780   1.409       .  A
C3779      C3784   1.414       .  A
C3780      C3781   1.395       .  A
C3780      H3793   1.083       .  S
C3781      C3782   1.411       .  A
C3781      H3794   1.077       .  S
C3782      C3788   1.432       .  A
C3782      C3783   1.420       .  A
C3783      C3785   1.401       .  A
C3783      C3784   1.409       .  A
C3784      H3795   1.081       .  S
C3785      C3786   1.392       .  A
C3785      H3796   1.084       .  S
C3786      C3787   1.399       .  A
C3786      H3797   1.084       .  S
C3787      C3788   1.423       .  A
C3787      C3792   1.407       .  A
C3788      C3789   1.417       .  A
C3789      C3790   1.396       .  A
C3789      H3798   1.077       .  S
C3790      C3791   1.396       .  A
C3790      H3799   1.083       .  S
C3791      C3792   1.399       .  A
C3792      H3800   1.085       .  S
C3801      C3802   1.412       .  A
C3801      C3806   1.411       .  A
C3802      C3803   1.390       .  A
C3802      H3815   1.081       .  S
C3803      C3804   1.407       .  A
C3803      H3816   1.078       .  S
C3804      C3810   1.425       .  A
C3804      C3805   1.419       .  A
C3805      C3807   1.401       .  A
C3805      C3806   1.409       .  A
C3806      H3817   1.084       .  S
C3807      C3808   1.395       .  A
C3807      H3818   1.084       .  S
C3808      C3809   1.401       .  A
C3808      H3819   1.084       .  S
C3809      C3810   1.419       .  A
C3809      C3814   1.407       .  A
C3810      C3811   1.413       .  A
C3811      C3812   1.393       .  A
C3811      H3820   1.078       .  S
C3812      C3813   1.400       .  A
C3812      H3821   1.084       .  S
C3813      C3814   1.405       .  A
C3814      H3822   1.084       .  S
C3823      C3824   1.408       .  A
C3823      C3828   1.410       .  A
C3824      C3825   1.396       .  A
C3824      H3837   1.081       .  S
C3825      C3826   1.413       .  A
C3825      H3838   1.077       .  S
C3826      C3832   1.430       .  A
C3826      C3827   1.420       .  A
C3827      C3829   1.400       .  A
C3827      C3828   1.404       .  A
C3828      H3839   1.084       .  S
C3829      C3830   1.390       .  A
C3829      H3840   1.084       .  S
C3830      C3831   1.400       .  A
C3830      H3841   1.084       .  S
C3831      C3832   1.423       .  A
C3831      C3836   1.407       .  A
C3832      C3833   1.414       .  A
C3833      C3834   1.396       .  A
C3833      H3842   1.077       .  S
C3834      C3835   1.400       .  A
C3834      H3843   1.083       .  S
C3835      C3836   1.401       .  A
C3836      H3844   1.084       .  S
