geometry optimzed in LAMMPS
_audit_creation_date              2020-12-01 
_audit_creation_method            'lammps2cif' 
_symmetry_space_group_name_H-M    'P1' 
_symmetry_Int_Tables_number       1 
_symmetry_cell_setting            triclinic 
loop_ 
_symmetry_equiv_pos_as_xyz 
  x,y,z 
_cell_length_a                    42.04155242 
_cell_length_b                    42.004986547125924 
_cell_length_c                    32.86681431051449 
_cell_angle_alpha                 88.47128832019555 
_cell_angle_beta                  91.86951743135936 
_cell_angle_gamma                 131.88240590131383 
loop_ 
_atom_site_label 
_atom_site_type_symbol 
_atom_site_fract_x 
_atom_site_fract_y 
_atom_site_fract_z 
_atom_site_charge 
C1          C  0.34579575  0.14099460  0.90561122     0.86400
C2          C  0.36898879  0.18636337  0.92182464    -0.53900
C3          C  0.35291195  0.20364698  0.90693656     0.09300
C4          C  0.31697622  0.17606522  0.87524780     0.20200
C5          C  0.29844326  0.11563614  0.91397611    -0.54600
C6          C  0.28341361  0.13434162  0.89877640     0.09400
C7          C  0.34998927  0.14746300  0.85939901    -0.54100
C8          C  0.33569766  0.16630507  0.84337580     0.10000
H9          H  0.39658441  0.20518369  0.94194814     0.14500
H10         H  0.30484034  0.19079953  0.86187536     0.00200
H11         H  0.27927200  0.08671095  0.93244700     0.14800
H12         H  0.36365460  0.13832928  0.84084641     0.14600
C13         C  0.35843955  0.14748428  0.61206371     0.86400
C14         C  0.31261349  0.12178351  0.59556606    -0.53900
C15         C  0.29502824  0.13846617  0.60527245     0.09300
C16         C  0.32405927  0.17858842  0.63234653     0.20200
C17         C  0.38305947  0.19343357  0.59721617    -0.54600
C18         C  0.36577528  0.21020449  0.60808184     0.09400
C19         C  0.35427693  0.14923059  0.65856165    -0.54100
C20         C  0.33657192  0.16563628  0.66927978     0.10000
H21         H  0.29558515  0.09310422  0.57743344     0.14500
H22         H  0.30926260  0.19146624  0.64109311     0.00200
H23         H  0.41099494  0.21046256  0.57843960     0.14800
H24         H  0.36388144  0.13857430  0.68215003     0.14600
C25         C  0.11968247  0.37209681  0.10221949     0.86400
C26         C  0.16775965  0.39871682  0.09483246    -0.53900
C27         C  0.18424023  0.38295626  0.11332894     0.12300
C28         C  0.15034856  0.34041198  0.13676752     0.20200
C29         C  0.09899718  0.32758841  0.08670332    -0.54600
C30         C  0.11392701  0.31034629  0.10563543     0.09400
C31         C  0.11541935  0.36752969  0.14855041    -0.54100
C32         C  0.13076005  0.35046863  0.16660160     0.10000
H33         H  0.18646992  0.42488241  0.07321226     0.14500
H34         H  0.16314779  0.32674342  0.15147259     0.00200
H35         H  0.07584640  0.31161682  0.06176721     0.14800
H36         H  0.10239355  0.37815700  0.16578139     0.14600
C37         C  0.12279979  0.38424151  0.39914122     0.86400
C38         C  0.09888846  0.33787524  0.41239281    -0.53900
C39         C  0.11705246  0.32263558  0.39951122     0.09300
C40         C  0.15794873  0.35526707  0.37458125     0.20200
C41         C  0.16911444  0.41041855  0.41415237    -0.54600
C42         C  0.18805416  0.39603039  0.40104358     0.09400
C43         C  0.12462566  0.38238151  0.35227934    -0.54100
C44         C  0.14360603  0.36787109  0.33956175     0.10000
H45         H  0.07003342  0.31851753  0.43010244     0.14500
H46         H  0.17206811  0.34228393  0.36380810     0.00200
H47         H  0.18484134  0.43732382  0.43445674     0.14800
H48         H  0.10896426  0.38805370  0.33045110     0.14600
Zr49       Zr  0.01316483  0.47443159  0.96736769     2.17500
O50         O  0.02044793  0.45752493  0.89982089    -0.51500
O51         O  0.04208515  0.44881931  0.00774165    -0.74700
O52         O  0.08301193  0.02104086  0.94588007    -0.81500
O53         O  0.39738376  0.37066611  0.97929238    -0.83200
O54         O  0.11220527  0.08798274  0.96226039    -0.78800
O55         O  0.45928431  0.39963440  0.94794765    -0.90500
O56         O  0.04268869  0.46269581  0.07436212    -0.76400
O57         O  0.05067380  0.02659672  0.01928375    -0.85900
O58         O  0.47123317  0.44306195  0.02676469    -0.85600
O59         O  0.01968379  0.03309466  0.94172661    -0.72400
O60         O  0.44614021  0.45672767  0.95031215    -0.84500
Zr61       Zr  0.45448438  0.04028693  0.03647411     2.26400
Zr62       Zr  0.05918199  0.08569350  0.99408380     2.06300
Zr63       Zr  0.40592770  0.42719433  0.01143839     2.10000
Zr64       Zr  0.01063005  0.49366830  0.07915294     1.78800
O65         O  0.34082508  0.38267102  0.96961939    -0.93300
O66         O  0.08089260  0.04755415  0.10956853    -0.41100
O67         O  0.44607567  0.47932216  0.06415656    -0.77700
O68         O  0.01913045  0.05647889  0.05558752    -0.96400
O69         O  0.49839867  0.07332954  0.97820279    -0.89700
O70         O  0.41536388  0.99077574  0.98207394    -0.92600
C71         C  0.05024847  0.44852173  0.04570558     1.01200
C72         C  0.42024223  0.36836019  0.95695913     1.14100
C73         C  0.11439705  0.06150073  0.94718852     1.04900
O74         O  0.12437071  0.13210255  0.03549605    -0.94700
O75         O  0.06803335  0.14439660  0.02170835    -0.90500
O76         O  0.00547909  0.11521999  0.05157477    -0.83600
C77         C  0.04462210  0.14723564  0.04231440     1.11500
O78         O  0.46772368  0.00889612  0.85602797    -0.96700
Zr79       Zr  0.45951582  0.02356406  0.92427314     1.88900
O80         O  0.42789568  0.06805237  0.99718991    -0.73300
O81         O  0.08935810  0.13700735  0.93806963    -0.52600
O82         O  0.99224353  0.07686590  0.88188011    -0.97300
O83         O  0.38864547  0.46362102  0.89113945    -0.54500
O84         O  0.42732705  0.05434992  0.93052672    -0.73900
C85         C  0.42012186  0.06880828  0.95933765     0.98500
O86         O  0.44565209  0.05554316  0.10426283    -0.62700
O87         O  0.37586895  0.37370653  0.06542421    -0.57500
O88         O  0.38124211  0.48857152  0.06097312    -0.94200
O89         O  0.35180079  0.42122302  0.04565664    -0.92600
O90         O  0.47034550  0.43528235  0.12376894    -0.93000
O91         O  0.49571313  0.00222745  0.14516845    -0.91700
C92         C  0.34965201  0.44763597  0.06052396     1.17300
H93         H  0.46556875  0.41758063  0.03460937     0.33300
H94         H  0.03409744  0.07786632  0.07665833     0.44100
H95         H  0.38782413  0.47896836  0.98250721     0.37600
H96         H  0.03617806  0.04374477  0.91705133     0.34100
H97         H  0.08263603  0.03075279  0.12966198     0.25900
H98         H  0.06543304  0.13441016  0.92740641     0.31800
H99         H  0.52882420  0.09361290  0.87694191     0.37800
H100        H  0.49157203  0.43629480  0.13932654     0.32200
H101        H  0.39081603  0.36301487  0.06383533     0.31100
H102        H  0.33260499  0.39978806  0.96527168     0.32800
H103        H  0.37049468  0.96964140  0.90329699     0.31700
H104        H  0.99711662  0.03273026  0.14159594     0.35700
H105        H  0.42846214  0.02793356  0.11915404     0.28500
H106        H  0.04047711  0.45276112  0.90336091     0.32700
H107        H  0.46542117  0.98393092  0.85952625     0.35600
H108        H  0.38688023  0.39029212  0.09097906     0.28200
H109        H  0.47427125  0.07298277  0.11753046     0.41000
H110        H  0.11460595  0.12470121  0.06396749     0.31100
H111        H  0.10046815  0.05456414  0.08778796     0.38700
H112        H  0.36662303  0.45752869  0.90902552     0.30600
H113        H  0.10916892  0.16541218  0.95117818     0.30600
H114        H  0.03615678  0.48433146  0.88375730     0.30900
Zr115      Zr  0.46192413  0.05191447  0.47678329     2.17500
O116        O  0.45122661  0.07716252  0.41465997    -0.51500
O117        O  0.43832454  0.07703311  0.52241078    -0.74700
O118        O  0.38628939  0.50144148  0.45543095    -0.81500
O119        O  0.07933803  0.15405744  0.47303474    -0.83200
O120        O  0.35598963  0.43486268  0.47723241    -0.78800
O121        O  0.01322749  0.12666276  0.45218644    -0.90500
O122        O  0.44372540  0.06219614  0.58772314    -0.76400
O123        O  0.42905115  0.50223169  0.52955365    -0.85900
O124        O  0.50931731  0.08158357  0.53429096    -0.85600
O125        O  0.44367076  0.48657743  0.44958311    -0.72400
O126        O  0.02211431  0.06470884  0.44596478    -0.84500
Zr127      Zr  0.02402280  0.48545081  0.53403468     2.26400
Zr128      Zr  0.41199636  0.43864982  0.50680336     2.06300
Zr129      Zr  0.07150795  0.09551798  0.50258287     2.10000
Zr130      Zr  0.47296849  0.02820921  0.58598777     1.78800
O131        O  0.12857887  0.13407406  0.45327529    -0.93300
O132        O  0.42011850  0.49047508  0.62777261    -0.41100
O133        O  0.03793179  0.04549429  0.55795925    -0.77700
O134        O  0.46274557  0.47106385  0.56236289    -0.96400
O135        O  0.47154852  0.44950277  0.48274278    -0.89700
O136        O  0.05554962  0.03314008  0.47846456    -0.92600
C137        C  0.43438158  0.07772605  0.56095735     1.01200
C138        C  0.05388070  0.15773871  0.45639078     1.14100
C139        C  0.35400150  0.46119456  0.45986022     1.04900
O140        O  0.35329842  0.39987022  0.55425358    -0.94700
O141        O  0.40341125  0.38016930  0.53773502    -0.90500
O142        O  0.47028678  0.40666310  0.55262646    -0.83600
C143        C  0.42937638  0.37599227  0.55142916     1.11500
O144        O  0.49684012  0.02256662  0.36297540    -0.96700
Zr145      Zr  0.00696459  0.50123546  0.42375048     1.88900
O146        O  0.04962349  0.46106134  0.49020287    -0.73300
O147        O  0.37328428  0.38055578  0.45784217    -0.52600
O148        O  0.45392894  0.43212403  0.38896115    -0.97300
O149        O  0.06899578  0.05066777  0.38143792    -0.54500
O150        O  0.03886052  0.46990863  0.42430260    -0.73900
C151        C  0.05196667  0.45843005  0.45165087     0.98500
O152        O  0.03939945  0.47085555  0.60076905    -0.62700
O153        O  0.11131140  0.15255113  0.55271423    -0.57500
O154        O  0.09559639  0.03020671  0.55463754    -0.94200
O155        O  0.12666556  0.09694020  0.53180836    -0.92600
O156        O  0.02419594  0.09764846  0.61807881    -0.93000
O157        O  0.48489214  0.01121545  0.65292396    -0.91700
C158        C  0.12795714  0.07024698  0.54995303     1.17300
H159        H  0.01807097  0.10882735  0.53326124     0.33300
H160        H  0.45116852  0.45188420  0.58514760     0.44100
H161        H  0.08136856  0.03989836  0.47128994     0.37600
H162        H  0.42356148  0.47496625  0.42741495     0.34100
H163        H  0.40470022  0.98947454  0.64128071     0.25900
H164        H  0.34397600  0.35937727  0.46851124     0.31800
H165        H  0.44491726  0.40915582  0.40846680     0.37800
H166        H  0.52371345  0.11194643  0.61979563     0.32200
H167        H  0.11468534  0.14023503  0.57674537     0.31100
H168        H  0.15033383  0.16330154  0.46441330     0.32800
H169        H  0.06473688  0.03303780  0.35873807     0.31700
H170        H  0.52700238  0.53377413  0.64717796     0.35700
H171        H  0.04904866  0.98974767  0.61532618     0.28500
H172        H  0.42922233  0.07838841  0.42115452     0.32700
H173        H  0.49404925  0.50051193  0.34067554     0.35600
H174        H  0.14040864  0.17398652  0.54163646     0.28200
H175        H  0.50934867  0.44740140  0.61715023     0.41000
H176        H  0.36717847  0.40700215  0.58151283     0.31100
H177        H  0.39534009  0.48118992  0.61078178     0.38700
H178        H  0.09277677  0.05702555  0.39790420     0.30600
H179        H  0.37035999  0.39227748  0.43294720     0.30600
H180        H  0.43711309  0.05352980  0.39494728     0.30900
C181        C  0.30636233  0.47324044  0.43442765    -0.12400
C182        C  0.31176173  0.44430496  0.44383620     0.04600
C183        C  0.27662333  0.40023921  0.43725664    -0.07700
C184        C  0.23803179  0.38656745  0.42197554    -0.08400
C185        C  0.23191796  0.41497825  0.41399754    -0.03000
C186        C  0.26717390  0.45930975  0.41992745     0.03800
N187        N  0.26514644  0.49128913  0.41045711     0.66300
H188        H  0.33267751  0.50724825  0.43874441     0.15200
H189        H  0.21233188  0.35271387  0.41729201     0.14900
N190        N  0.27860119  0.36811005  0.44563024     0.74000
O191        O  0.26675964  0.01250374  0.42762723    -0.39400
O192        O  0.28273010  0.51303376  0.37833587    -0.39400
O193        O  0.26184215  0.34636675  0.47789168    -0.40100
O194        O  0.28086053  0.35140027  0.41583878    -0.40100
C195        C  0.10338901  0.42932178  0.38759930    -0.12400
C196        C  0.10377810  0.40277485  0.41405831     0.04600
C197        C  0.09031981  0.39834291  0.45465418    -0.07700
C198        C  0.07312427  0.41614486  0.46561053    -0.08400
C199        C  0.07062319  0.44046831  0.43804611    -0.03000
C200        C  0.08697145  0.44759421  0.39868186     0.03800
N201        N  0.09042719  0.47571987  0.36985814     0.66300
H202        H  0.11802786  0.43854108  0.35819886     0.15200
H203        H  0.06217760  0.41121462  0.49646748     0.14900
N204        N  0.09554460  0.37809834  0.48625433     0.74000
O205        O  0.12632076  0.51312184  0.36663071    -0.39400
O206        O  0.06548253  0.45939461  0.33920777    -0.39400
O207        O  0.12626504  0.40187926  0.51126327    -0.40100
O208        O  0.06264227  0.34160034  0.49831423    -0.40100
C209        C  0.04814629  0.20221022  0.41139442    -0.12400
C210        C  0.07201138  0.20044699  0.44069431     0.04600
C211        C  0.11160323  0.23953578  0.45445708    -0.07700
C212        C  0.12471393  0.27840904  0.44070581    -0.08400
C213        C  0.10089590  0.27996584  0.41166379    -0.03000
C214        C  0.06231363  0.24124424  0.39647203     0.03800
N215        N  0.03755935  0.24029193  0.36496393     0.66300
H216        H  0.01831657  0.17297952  0.39933124     0.15200
H217        H  0.15355605  0.30774223  0.45365835     0.14900
N218        N  0.13920734  0.24124478  0.48264342     0.74000
O219        O  0.04161482  0.23362181  0.32908359    -0.39400
O220        O  0.00268034  0.22965777  0.37433823    -0.39400
O221        O  0.17141251  0.24895532  0.46876834    -0.40100
O222        O  0.61214901  0.24524136  0.54215470    -0.40100
C223        C  0.10084721  0.33185481  0.27740477    -0.12400
C224        C  0.14110073  0.35704959  0.29634625     0.04600
C225        C  0.17693260  0.37365859  0.27271635    -0.07700
C226        C  0.17208210  0.36827954  0.23038482    -0.08400
C227        C  0.13228752  0.34683202  0.21124137    -0.03000
C228        C  0.09608377  0.32698884  0.23540137     0.03800
N229        N  0.05403093  0.30206062  0.21839423     0.66300
H230        H  0.07276318  0.31730832  0.29531238     0.15200
H231        H  0.20012954  0.38343258  0.21220160     0.14900
N232        N  0.21884026  0.39838087  0.29010094     0.74000
O233        O  0.02966876  0.26195478  0.22118798    -0.39400
O234        O  0.03732250  0.31824582  0.21719070    -0.39400
O235        O  0.23482465  0.38148954  0.29295289    -0.40100
O236        O  0.24375072  0.43858032  0.28758000    -0.40100
C237        C  0.05292535  0.19152158  0.09730466    -0.12400
C238        C  0.06447128  0.18983377  0.05845122     0.04600
C239        C  0.09534899  0.22882887  0.03731495    -0.07700
C240        C  0.11173529  0.26752492  0.05425171    -0.08400
C241        C  0.09939445  0.26892634  0.09254361    -0.03000
C242        C  0.07046740  0.23045058  0.11473309     0.03800
N243        N  0.05744164  0.22947720  0.15453818     0.66300
H244        H  0.52213568  0.16151304  0.11032061     0.15200
H245        H  0.13402943  0.29688504  0.03695463     0.14900
N246        N  0.10996611  0.23042733  0.99817235     0.74000
O247        O  0.50897345  0.21882685  0.14131742    -0.39400
O248        O  0.07387290  0.22493290  0.18431673    -0.39400
O249        O  0.09523818  0.23608410  0.96760709    -0.40100
O250        O  0.14673680  0.24290178  0.99609907    -0.40100
C251        C  0.23187608  0.37182864  0.09194533    -0.12400
C252        C  0.22804448  0.40060207  0.10428904     0.04600
C253        C  0.26510557  0.44484489  0.10422170    -0.07700
C254        C  0.30413996  0.45877087  0.09128086    -0.08400
C255        C  0.30775396  0.43002837  0.07728581    -0.03000
C256        C  0.27058426  0.38565041  0.07835509     0.03800
N257        N  0.27027739  0.35339635  0.06515587     0.66300
H258        H  0.20394110  0.33792387  0.09121120     0.15200
H259        H  0.33169591  0.49280201  0.09151096     0.14900
N260        N  0.26466086  0.47657770  0.11763635     0.74000
O261        O  0.27136460  0.33214032  0.09208126    -0.39400
O262        O  0.25250784  0.33597083  0.03127507    -0.39400
O263        O  0.28051955  0.49255687  0.15238115    -0.40100
O264        O  0.26496836  0.49895263  0.09095633    -0.40100
C265        C  0.12783428  0.43397423  0.07442051    -0.12400
C266        C  0.10055877  0.39037200  0.08453185     0.04600
C267        C  0.05579896  0.36616763  0.08250019    -0.07700
C268        C  0.04007678  0.38554000  0.06880579    -0.08400
C269        C  0.06804783  0.42897563  0.05775131    -0.03000
C270        C  0.11237498  0.45314992  0.06084970     0.03800
N271        N  0.13836649  0.99545397  0.04837348     0.66300
H272        H  0.16195954  0.45496567  0.07885268     0.15200
H273        H  0.00586151  0.36674234  0.06744120     0.14900
N274        N  0.02588397  0.32186844  0.09366636     0.74000
O275        O  0.15633088  0.02177729  0.07729613    -0.39400
O276        O  0.15892857  0.00608034  0.01610840    -0.39400
O277        O  0.02366363  0.31063099  0.13018982    -0.40100
O278        O  0.00638274  0.29385919  0.06620248    -0.40100
C279        C  0.39872913  0.10594585  0.54586556    -0.12400
C280        C  0.41724995  0.09721520  0.57488515     0.04600
C281        C  0.41879569  0.10765371  0.61591488    -0.07700
C282        C  0.40026760  0.12393822  0.62688352    -0.08400
C283        C  0.37939444  0.13046923  0.59837098    -0.03000
C284        C  0.38063500  0.12279197  0.55679385     0.03800
N285        N  0.36470072  0.13252417  0.52452496     0.66300
H286        H  0.39805251  0.09965072  0.51393806     0.15200
H287        H  0.40428455  0.13261749  0.65829978     0.14900
N288        N  0.44017108  0.10368744  0.64739465     0.74000
O289        O  0.39138829  0.16685740  0.50487366    -0.39400
O290        O  0.33048638  0.10172543  0.50654713    -0.39400
O291        O  0.47598687  0.13745618  0.66013763    -0.40100
O292        O  0.41757058  0.07223928  0.67148421    -0.40100
C293        C  0.35405952  0.25788840  0.58373196    -0.12400
C294        C  0.38319632  0.25329882  0.59480102     0.04600
C295        C  0.42739971  0.28958838  0.59230512    -0.07700
C296        C  0.44093645  0.32852519  0.57823421    -0.08400
C297        C  0.41181496  0.33322863  0.56669979    -0.03000
C298        C  0.36754553  0.29699585  0.57023098     0.03800
N299        N  0.33516586  0.29845786  0.56098671     0.66300
H300        H  0.32003676  0.23062963  0.58490038     0.15200
H301        H  0.47504295  0.35545841  0.57668229     0.14900
N302        N  0.45961656  0.28890430  0.60547650     0.74000
O303        O  0.31552024  0.28375867  0.52720559    -0.39400
O304        O  0.31610924  0.29777834  0.59036127    -0.39400
O305        O  0.48102548  0.28985881  0.57861105    -0.40100
O306        O  0.47683000  0.30402824  0.64008928    -0.40100
C307        C  0.20449704  0.11158325  0.53837736    -0.12400
C308        C  0.17013226  0.08671745  0.56493627     0.04600
C309        C  0.17702535  0.07761059  0.60430610    -0.07700
C310        C  0.21782888  0.09417941  0.61626584    -0.08400
C311        C  0.25223203  0.11998965  0.59018479    -0.03000
C312        C  0.24511203  0.12770724  0.55041209     0.03800
N313        N  0.27812276  0.15061026  0.52118699     0.66300
H314        H  0.19962047  0.11787650  0.50766357     0.15200
H315        H  0.22259856  0.08636802  0.64595610     0.14900
N316        N  0.14392336  0.05344522  0.63344243     0.74000
O317        O  0.27928453  0.12932544  0.49592385    -0.39400
O318        O  0.29414538  0.18793487  0.51149775    -0.39400
O319        O  0.12843266  0.01603200  0.64183382    -0.40100
O320        O  0.14231937  0.07359394  0.65983495    -0.40100
C321        C  0.30085212  0.15863223  0.77741575    -0.12400
C322        C  0.33831922  0.17582040  0.79915118     0.04600
C323        C  0.37641414  0.19748902  0.77742280    -0.07700
C324        C  0.37514723  0.19682441  0.73493623    -0.08400
C325        C  0.33664444  0.17502014  0.71293192    -0.03000
C326        C  0.29966848  0.15840759  0.73464300     0.03800
N327        N  0.25984214  0.13876767  0.71480939     0.66300
H328        H  0.27157307  0.14292661  0.79367578     0.15200
H329        H  0.40444344  0.21191318  0.71896362     0.14900
N330        N  0.41697700  0.22097399  0.79756552     0.74000
O331        O  0.23079165  0.09865232  0.71757824    -0.39400
O332        O  0.24898719  0.16039960  0.71105949    -0.39400
O333        O  0.43424637  0.20535370  0.79865071    -0.40100
O334        O  0.44069712  0.26104426  0.79962347    -0.40100
C335        C  0.39367835  0.13910959  0.95327725    -0.12400
C336        C  0.36201350  0.11943892  0.92227798     0.04600
C337        C  0.34714655  0.08009996  0.90675397    -0.07700
C338        C  0.36698841  0.06475039  0.91908203    -0.08400
C339        C  0.40035007  0.08642913  0.94796697    -0.03000
C340        C  0.41291051  0.12347494  0.96588539     0.03800
N341        N  0.44609051  0.14700552  0.99620731     0.66300
H342        H  0.40423171  0.16672768  0.96930714     0.15200
H343        H  0.35552440  0.03500108  0.90646070     0.14900
N344        N  0.31108239  0.05404820  0.87967400     0.74000
O345        O  0.48269106  0.18037257  0.98519672    -0.39400
O346        O  0.92243012  0.13175166  0.03612968    -0.39400
O347        O  0.31760958  0.05187849  0.84306217    -0.40100
O348        O  0.27568575  0.02258404  0.89473514    -0.40100
C349        C  0.37911610  0.27490361  0.89074503    -0.12400
C350        C  0.36868005  0.24511775  0.92052190     0.04600
C351        C  0.37377976  0.25572091  0.96218718    -0.07700
C352        C  0.38930459  0.29580678  0.97289531    -0.08400
C353        C  0.40105038  0.32602284  0.94309030    -0.03000
C354        C  0.39589020  0.31547132  0.90159524     0.03800
N355        N  0.40675957  0.34490725  0.86990009     0.66300
H356        H  0.37532619  0.26707197  0.85876040     0.15200
H357        H  0.39337503  0.30382631  0.00486602     0.14900
N358        N  0.36353027  0.22670749  0.99426147     0.74000
O359        O  0.44099226  0.36334070  0.85122596    -0.39400
O360        O  0.37683586  0.33998359  0.85173154    -0.39400
O361        O  0.39394348  0.23297786  0.01300829    -0.40100
O362        O  0.32902109  0.20736452  0.01273940    -0.40100
C363        C  0.19029615  0.12373025  0.93233384    -0.12400
C364        C  0.15638034  0.07930359  0.93119930     0.04600
C365        C  0.16459158  0.05395026  0.91639566    -0.07700
C366        C  0.20591146  0.07317024  0.90535639    -0.08400
C367        C  0.23996874  0.11732548  0.90802674    -0.03000
C368        C  0.23154033  0.14292295  0.92122173     0.03800
N369        N  0.26402430  0.18811426  0.92613861     0.66300
H370        H  0.18534361  0.14432895  0.94293683     0.15200
H371        H  0.21138976  0.05302540  0.89459247     0.14900
N372        N  0.13205094  0.00872539  0.91179537     0.74000
O373        O  0.26750862  0.21153456  0.89835408    -0.39400
O374        O  0.27425147  0.20233042  0.96197792    -0.39400
O375        O  0.12261528  0.49375884  0.88080378    -0.40100
O376        O  0.12984831  0.98522354  0.93848335    -0.40100
C377        C  0.34947768  0.64220423  0.90684471     0.86400
C378        C  0.37266203  0.68749398  0.92373993    -0.53900
C379        C  0.35732041  0.70544086  0.90830768     0.09300
C380        C  0.32165722  0.67806717  0.87609793     0.20200
C381        C  0.30221990  0.61721437  0.91464132    -0.54600
C382        C  0.28757613  0.63618349  0.89924908     0.09400
C383        C  0.35434922  0.64911923  0.86073183    -0.54100
C384        C  0.34068163  0.66840270  0.84436826     0.10000
H385        H  0.39934663  0.70547227  0.94493920     0.14500
H386        H  0.30960605  0.69282935  0.86256677     0.00200
H387        H  0.28276285  0.58821623  0.93300018     0.14800
H388        H  0.36759533  0.63939927  0.84243278     0.14600
C389        C  0.35834425  0.64696739  0.61063286     0.86400
C390        C  0.31234193  0.62233685  0.59562912    -0.53900
C391        C  0.29640917  0.64046420  0.60604126     0.09300
C392        C  0.32705929  0.68089067  0.63240417     0.20200
C393        C  0.38361742  0.69289238  0.59506389    -0.54600
C394        C  0.36772448  0.71098930  0.60641289     0.09400
C395        C  0.35672228  0.65065387  0.65735783    -0.54100
C396        C  0.34012889  0.66793466  0.66898589     0.10000
H397        H  0.29421439  0.59360981  0.57735126     0.14500
H398        H  0.31355046  0.69499265  0.64149124     0.00200
H399        H  0.41043913  0.70866106  0.57499642     0.14800
H400        H  0.36853002  0.64204442  0.68062009     0.14600
C401        C  0.11691496  0.87078893  0.09831494     0.86400
C402        C  0.16475589  0.89783526  0.08954716    -0.53900
C403        C  0.18259085  0.88350664  0.10800895     0.12300
C404        C  0.15003216  0.84151514  0.13265757     0.20200
C405        C  0.09653883  0.82602213  0.08368021    -0.54600
C406        C  0.11311356  0.81026355  0.10241728     0.09400
C407        C  0.11408702  0.86738257  0.14479190    -0.54100
C408        C  0.13047888  0.85136738  0.16275278     0.10000
H409        H  0.18203162  0.92264622  0.06651066     0.14500
H410        H  0.16374283  0.82879008  0.14743397     0.00200
H411        H  0.07255967  0.80892725  0.05952074     0.14800
H412        H  0.10087412  0.87772828  0.16216048     0.14600
C413        C  0.12477136  0.88727919  0.39505069     0.86400
C414        C  0.10047647  0.84137160  0.41024604    -0.53900
C415        C  0.11721183  0.82448758  0.39808719     0.09300
C416        C  0.15744973  0.85542490  0.37154015     0.20200
C417        C  0.17151827  0.91331498  0.40869496    -0.54600
C418        C  0.18924495  0.89747157  0.39605841     0.09400
C419        C  0.12499851  0.88327116  0.34827607    -0.54100
C420        C  0.14273672  0.86732168  0.33607626     0.10000
H421        H  0.07235506  0.82358158  0.42894710     0.14500
H422        H  0.17044483  0.84122609  0.36108450     0.00200
H423        H  0.18853095  0.94136285  0.42767294     0.14800
H424        H  0.10986362  0.88910965  0.32598462     0.14600
Zr425      Zr  0.00978546  0.97319563  0.96836448     2.17500
O426        O  0.01672269  0.95300380  0.90261475    -0.51500
O427        O  0.03917993  0.94858216  0.00926119    -0.74700
O428        O  0.08687621  0.52148926  0.94670851    -0.81500
O429        O  0.39533420  0.87211690  0.97241919    -0.83200
O430        O  0.11644615  0.58786790  0.96590914    -0.78800
O431        O  0.45854649  0.90150586  0.94381055    -0.90500
O432        O  0.03819706  0.96138485  0.07582569    -0.76400
O433        O  0.05314748  0.52572244  0.02014817    -0.85900
O434        O  0.46624232  0.94165753  0.02171820    -0.85600
O435        O  0.02423257  0.53549646  0.94268438    -0.72400
O436        O  0.44671595  0.96072577  0.94460302    -0.84500
Zr437      Zr  0.45593550  0.53948401  0.03893290     2.26400
Zr438      Zr  0.06309104  0.58593090  0.99663828     2.06300
Zr439      Zr  0.40293178  0.92866616  0.00326726     2.10000
Zr440      Zr  0.00948245  0.99607584  0.07917919     1.78800
O441        O  0.34453641  0.89461686  0.95345447    -0.93300
O442        O  0.07999637  0.54391151  0.11358859    -0.41100
O443        O  0.44072344  0.97740470  0.05902109    -0.77700
O444        O  0.02210067  0.55551097  0.05774824    -0.96400
O445        O  0.49675687  0.57022201  0.97851617    -0.89700
O446        O  0.41521212  0.48692083  0.98717018    -0.92600
C447        C  0.04614158  0.94733070  0.04733061     1.01200
C448        C  0.41923537  0.87006856  0.95166286     1.14100
C449        C  0.11858004  0.56174041  0.94968258     1.04900
O450        O  0.12927248  0.63425007  0.03628325    -0.94700
O451        O  0.07308500  0.64463894  0.02517137    -0.90500
O452        O  0.00984979  0.61551112  0.05340753    -0.83600
C453        C  0.04924970  0.64748727  0.04479268     1.11500
O454        O  0.46696832  0.50424438  0.85938458    -0.96700
Zr455      Zr  0.45631572  0.51744946  0.92719006     1.88900
O456        O  0.42829644  0.56563071  0.99801890    -0.73300
O457        O  0.08979236  0.63550505  0.93951220    -0.52600
O458        O  0.00256980  0.58779258  0.89188658    -0.97300
O459        O  0.39230420  0.97473705  0.88588339    -0.54500
O460        O  0.42214574  0.54631696  0.93223328    -0.73900
C461        C  0.41778826  0.56366694  0.96047288     0.98500
O462        O  0.44750930  0.55560437  0.10647555    -0.62700
O463        O  0.36218341  0.86879541  0.05100642    -0.57500
O464        O  0.37959348  0.98942697  0.05665373    -0.94200
O465        O  0.34892618  0.92251748  0.03759927    -0.92600
O466        O  0.45725503  0.92486098  0.11424457    -0.93000
O467        O  0.51045739  0.51663277  0.14552327    -0.91700
C468        C  0.34752905  0.94877353  0.05429635     1.17300
H469        H  0.45950439  0.91534635  0.02863241     0.33300
H470        H  0.03700397  0.57620069  0.07920764     0.44100
H471        H  0.38863668  0.98378718  0.97670898     0.37600
H472        H  0.04110116  0.54678218  0.91838343     0.34100
H473        H  0.08054314  0.52629692  0.13370529     0.25900
H474        H  0.07643260  0.64777755  0.94209881     0.31800
H475        H  0.47399658  0.57572777  0.86480784     0.37800
H476        H  0.42914007  0.91687302  0.11231407     0.32200
H477        H  0.33509151  0.84602311  0.03627239     0.31100
H478        H  0.32365573  0.86419228  0.96190729     0.32800
H479        H  0.38903493  0.47902576  0.86754098     0.31700
H480        H  0.99825436  0.52987775  0.14214850     0.35700
H481        H  0.43243972  0.52873686  0.12229126     0.28500
H482        H  0.03702018  0.94871022  0.90738376     0.32700
H483        H  0.47073907  0.48351505  0.86382903     0.35600
H484        H  0.37738956  0.85829605  0.05289559     0.28200
H485        H  0.47658074  0.57511790  0.11890475     0.41000
H486        H  0.12152990  0.62221208  0.06422085     0.31100
H487        H  0.10090588  0.55182093  0.09294562     0.38700
H488        H  0.38550996  0.94717006  0.88619953     0.30600
H489        H  0.12035790  0.65939615  0.94634419     0.30600
H490        H  0.03201311  0.97883824  0.88513065     0.30900
Zr491      Zr  0.46212804  0.55079787  0.47362870     2.17500
O492        O  0.45027176  0.57182159  0.40904162    -0.51500
O493        O  0.43656177  0.57520528  0.51774310    -0.74700
O494        O  0.38676535  0.00277939  0.45524880    -0.81500
O495        O  0.07946369  0.65496091  0.47005125    -0.83200
O496        O  0.35663276  0.93523277  0.47264994    -0.78800
O497        O  0.01269664  0.62667802  0.45075804    -0.90500
O498        O  0.44778257  0.56600528  0.58315268    -0.76400
O499        O  0.42522739  0.99887983  0.52888237    -0.85900
O500        O  0.51396833  0.58467673  0.52757991    -0.85600
O501        O  0.44697969  0.99062812  0.44892768    -0.72400
O502        O  0.02270076  0.56480340  0.44473863    -0.84500
Zr503      Zr  0.02090629  0.98241725  0.53270418     2.26400
Zr504      Zr  0.41201530  0.93826491  0.50261674     2.06300
Zr505      Zr  0.07276924  0.59748842  0.50089725     2.10000
Zr506      Zr  0.48107650  0.53600190  0.58313840     1.78800
O507        O  0.13092587  0.63699931  0.45276722    -0.93300
O508        O  0.40550875  0.97377568  0.62001981    -0.41100
O509        O  0.04073511  0.54889433  0.55747038    -0.77700
O510        O  0.45875561  0.96648056  0.56131136    -0.96400
O511        O  0.47430356  0.95273461  0.48093007    -0.89700
O512        O  0.05737210  0.53481492  0.47862596    -0.92600
C513        C  0.43418810  0.57743376  0.55637639     1.01200
C514        C  0.05342480  0.65823908  0.45423457     1.14100
C515        C  0.35468713  0.96217892  0.45702646     1.04900
O516        O  0.35210526  0.89646157  0.54868930    -0.94700
O517        O  0.40265800  0.87788716  0.52890297    -0.90500
O518        O  0.46873199  0.90559582  0.54971732    -0.83600
C519        C  0.42833490  0.87410310  0.54456709     1.11500
O520        O  0.48476543  0.50954887  0.36121784    -0.96700
Zr521      Zr  0.00587763  0.00142911  0.42295363     1.88900
O522        O  0.04817823  0.96001171  0.48826451    -0.73300
O523        O  0.37525003  0.88342288  0.45031472    -0.52600
O524        O  0.46492325  0.94528370  0.38349568    -0.97300
O525        O  0.07087849  0.54898715  0.38279083    -0.54500
O526        O  0.03873015  0.97102099  0.42277095    -0.73900
C527        C  0.05155675  0.95886145  0.44961923     0.98500
O528        O  0.03289250  0.96350846  0.59877156    -0.62700
O529        O  0.11004281  0.65476065  0.55069137    -0.57500
O530        O  0.09916834  0.53491144  0.55422105    -0.94200
O531        O  0.12911041  0.60114235  0.53070614    -0.92600
O532        O  0.02892852  0.60094280  0.61685751    -0.93000
O533        O  0.49848668  0.52449091  0.65012978    -0.91700
C534        C  0.13102398  0.57504473  0.54921794     1.17300
H535        H  0.01880080  0.61018493  0.53067689     0.33300
H536        H  0.44588046  0.94544288  0.58251351     0.44100
H537        H  0.08324979  0.54161370  0.47146660     0.37600
H538        H  0.42842080  0.98047438  0.42575397     0.34100
H539        H  0.42434598  0.51027677  0.64778862     0.25900
H540        H  0.34627478  0.86030126  0.46101058     0.31800
H541        H  0.45012171  0.91982181  0.40142530     0.37800
H542        H  0.51607448  0.60417340  0.63841327     0.32200
H543        H  0.11238483  0.64256224  0.57556157     0.31100
H544        H  0.15414256  0.66444719  0.46645237     0.32800
H545        H  0.09420408  0.55463775  0.39947102     0.31700
H546        H  0.49313129  0.99453950  0.64729974     0.35700
H547        H  0.05364451  0.49722714  0.61658583     0.28500
H548        H  0.43053027  0.57621286  0.41517032     0.32700
H549        H  0.49195118  0.04195805  0.36903553     0.35600
H550        H  0.13963978  0.67622992  0.54076624     0.28200
H551        H  0.53966719  0.94281078  0.59480504     0.41000
H552        H  0.32910308  0.87011344  0.53342623     0.31100
H553        H  0.38321168  0.96578669  0.59990491     0.38700
H554        H  0.07760771  0.57651350  0.38238018     0.30600
H555        H  0.37088970  0.89562436  0.42698005     0.30600
H556        H  0.43325181  0.54593918  0.39186199     0.30900
C557        C  0.30806674  0.97460559  0.42826530    -0.12400
C558        C  0.31277536  0.94549807  0.43980961     0.04600
C559        C  0.27730621  0.90137251  0.43378581    -0.07700
C560        C  0.23935644  0.88796641  0.41682073    -0.08400
C561        C  0.23345480  0.91639193  0.40794833    -0.03000
C562        C  0.26913790  0.96077873  0.41280959     0.03800
N563        N  0.26809168  0.99287665  0.40032212     0.66300
H564        H  0.33472902  0.00868024  0.43150774     0.15200
H565        H  0.21398115  0.85427744  0.41168543     0.14900
N566        N  0.27795159  0.86878556  0.44507926     0.74000
O567        O  0.26241273  0.50823994  0.43963918    -0.39400
O568        O  0.28518855  0.01201874  0.36702628    -0.39400
O569        O  0.25984871  0.84822948  0.47759676    -0.40100
O570        O  0.28033727  0.85052811  0.41707552    -0.40100
C571        C  0.10008467  0.92806863  0.38263525    -0.12400
C572        C  0.10658293  0.90665697  0.41017859     0.04600
C573        C  0.09799794  0.90624358  0.45183729    -0.07700
C574        C  0.07991703  0.92297919  0.46349242    -0.08400
C575        C  0.07137035  0.94217221  0.43524629    -0.03000
C576        C  0.08282689  0.94539937  0.39431452     0.03800
N577        N  0.07984388  0.96819826  0.36386994     0.66300
H578        H  0.11019343  0.93395489  0.35158542     0.15200
H579        H  0.07298092  0.92117240  0.49536845     0.14900
N580        N  0.10857447  0.89059195  0.48351161     0.74000
O581        O  0.11360524  0.00559272  0.35499113    -0.39400
O582        O  0.05067945  0.94682322  0.33697648    -0.39400
O583        O  0.14198126  0.91771927  0.50460186    -0.40100
O584        O  0.07847413  0.85508531  0.49976025    -0.40100
C585        C  0.04386081  0.70375957  0.41649138    -0.12400
C586        C  0.07096842  0.70120056  0.43929473     0.04600
C587        C  0.11329963  0.73998328  0.44781558    -0.07700
C588        C  0.12619739  0.77909879  0.43529181    -0.08400
C589        C  0.09976073  0.78139187  0.41149514    -0.03000
C590        C  0.05782279  0.74296726  0.40218619     0.03800
N591        N  0.02908452  0.74228548  0.37706907     0.66300
H592        H  0.01149878  0.67496025  0.40882033     0.15200
H593        H  0.15720420  0.80808223  0.44509653     0.14900
N594        N  0.14453169  0.74124825  0.46837662     0.74000
O595        O  0.02593245  0.73359171  0.33989640    -0.39400
O596        O  0.99750189  0.73384252  0.39361810    -0.39400
O597        O  0.17256901  0.74716198  0.44710137    -0.40100
O598        O  0.65363337  0.75222286  0.50770772    -0.40100
C599        C  0.10018457  0.83147003  0.27371627    -0.12400
C600        C  0.14033558  0.85641770  0.29283376     0.04600
C601        C  0.17633431  0.87369032  0.26911934    -0.07700
C602        C  0.17164262  0.86869457  0.22670664    -0.08400
C603        C  0.13193444  0.84744949  0.20745033    -0.03000
C604        C  0.09563001  0.82731844  0.23160818     0.03800
N605        N  0.05373067  0.80326633  0.21448269     0.66300
H606        H  0.07205679  0.81685217  0.29157970     0.15200
H607        H  0.19978299  0.88416878  0.20856659     0.14900
N608        N  0.21830985  0.89907837  0.28649343     0.74000
O609        O  0.02881747  0.76306207  0.21638296    -0.39400
O610        O  0.03765000  0.82007570  0.21398860    -0.39400
O611        O  0.23465628  0.88259145  0.29021616    -0.40100
O612        O  0.24290219  0.93919955  0.28314549    -0.40100
C613        C  0.05398939  0.69193459  0.09672295    -0.12400
C614        C  0.06853737  0.69018869  0.05989476     0.04600
C615        C  0.10087296  0.72912141  0.03927794    -0.07700
C616        C  0.11544755  0.76780710  0.05447562    -0.08400
C617        C  0.09968853  0.76905800  0.09052832    -0.03000
C618        C  0.06957993  0.73073898  0.11242100     0.03800
N619        N  0.05346953  0.72984165  0.15025594     0.66300
H620        H  0.53976686  0.66511280  0.11857202     0.15200
H621        H  0.13898502  0.79716124  0.03763148     0.14900
N622        N  0.11880252  0.73057910  0.00242023     0.74000
O623        O  0.52762201  0.71906828  0.16161863    -0.39400
O624        O  0.06764598  0.72549813  0.18232571    -0.39400
O625        O  0.10751307  0.73706851  0.96952217    -0.40100
O626        O  0.15500936  0.74154508  0.00448448    -0.40100
C627        C  0.23163015  0.87317680  0.08978587    -0.12400
C628        C  0.22638328  0.90184106  0.09791043     0.04600
C629        C  0.26206677  0.94629233  0.09329578    -0.07700
C630        C  0.30093509  0.96031665  0.07995836    -0.08400
C631        C  0.30592623  0.93146427  0.07086872    -0.03000
C632        C  0.27048241  0.88715311  0.07669853     0.03800
N633        N  0.27266331  0.85520505  0.07045908     0.66300
H634        H  0.20491848  0.83908355  0.09263323     0.15200
H635        H  0.32732788  0.99441957  0.07628579     0.14900
N636        N  0.26070027  0.97827843  0.10303373     0.74000
O637        O  0.27715200  0.84003415  0.10144687    -0.39400
O638        O  0.25409827  0.83205313  0.03928022    -0.39400
O639        O  0.27796873  0.99791493  0.13620566    -0.40100
O640        O  0.25897428  0.99740287  0.07400345    -0.40100
C641        C  0.12382237  0.93185032  0.07018672    -0.12400
C642        C  0.09699366  0.88852105  0.08135510     0.04600
C643        C  0.05234629  0.86465473  0.08208009    -0.07700
C644        C  0.03623603  0.88430476  0.07094424    -0.08400
C645        C  0.06382596  0.92757448  0.05913551    -0.03000
C646        C  0.10799396  0.95108565  0.05855413     0.03800
N647        N  0.14303605  0.49792109  0.05245494     0.66300
H648        H  0.15809922  0.95282733  0.07232170     0.15200
H649        H  0.00209461  0.86574104  0.07157590     0.14900
N650        N  0.02293871  0.82032351  0.09309385     0.74000
O651        O  0.15970764  0.52293996  0.08240826    -0.39400
O652        O  0.16499696  0.51001812  0.02095271    -0.39400
O653        O  0.02152757  0.80905812  0.12941807    -0.40100
O654        O  0.00394045  0.79248697  0.06548000    -0.40100
C655        C  0.39964905  0.60735977  0.54215778    -0.12400
C656        C  0.41435077  0.59417851  0.57084712     0.04600
C657        C  0.40870818  0.59666351  0.61251601    -0.07700
C658        C  0.39034625  0.61286806  0.62416454    -0.08400
C659        C  0.37662045  0.62738720  0.59590422    -0.03000
C660        C  0.38063296  0.62317406  0.55391373     0.03800
N661        N  0.36444336  0.63312502  0.52216389     0.66300
H662        H  0.40235423  0.60501525  0.50990846     0.15200
H663        H  0.38677039  0.61271777  0.65630965     0.14900
N664        N  0.41997763  0.58188265  0.64440451     0.74000
O665        O  0.39086918  0.66726373  0.50218082    -0.39400
O666        O  0.32978336  0.60232718  0.50472943    -0.39400
O667        O  0.45287532  0.60951569  0.66583105    -0.40100
O668        O  0.39025276  0.54601601  0.66033910    -0.40100
C669        C  0.35444271  0.75659262  0.57848312    -0.12400
C670        C  0.38422585  0.75307269  0.59055632     0.04600
C671        C  0.42815126  0.78912759  0.58576141    -0.07700
C672        C  0.44090171  0.82722414  0.57006867    -0.08400
C673        C  0.41124321  0.83115609  0.55841144    -0.03000
C674        C  0.36715495  0.79456026  0.56202112     0.03800
N675        N  0.33430326  0.79431422  0.54895750     0.66300
H676        H  0.32056028  0.72922024  0.58086590     0.15200
H677        H  0.47489491  0.85421123  0.56744433     0.14900
N678        N  0.46099711  0.78914155  0.59810718     0.74000
O679        O  0.31608180  0.77767959  0.51498485    -0.39400
O680        O  0.31383824  0.79475360  0.57582634    -0.39400
O681        O  0.48041540  0.78784508  0.57066150    -0.40100
O682        O  0.48063133  0.80701646  0.63129375    -0.40100
C683        C  0.20738773  0.61524737  0.53784664    -0.12400
C684        C  0.17321916  0.59220076  0.56466360     0.04600
C685        C  0.18004033  0.58496215  0.60494395    -0.07700
C686        C  0.22039921  0.60081992  0.61738553    -0.08400
C687        C  0.25445198  0.62404853  0.59082902    -0.03000
C688        C  0.24767590  0.63078656  0.55040248     0.03800
N689        N  0.28072382  0.65231448  0.52120962     0.66300
H690        H  0.20254665  0.62038708  0.50660582     0.15200
H691        H  0.22500562  0.59434876  0.64785328     0.14900
N692        N  0.14730164  0.56345720  0.63445253     0.74000
O693        O  0.28185235  0.62989383  0.49763496    -0.39400
O694        O  0.29679245  0.68918988  0.50955344    -0.39400
O695        O  0.13116176  0.52644290  0.64571361    -0.40100
O696        O  0.14681407  0.58596396  0.65862400    -0.40100
C697        C  0.30666652  0.66277267  0.77831679    -0.12400
C698        C  0.34354480  0.67772232  0.79985313     0.04600
C699        C  0.38088019  0.69679072  0.77762354    -0.07700
C700        C  0.37933462  0.69675505  0.73506300    -0.08400
C701        C  0.34115353  0.67725673  0.71317390    -0.03000
C702        C  0.30496280  0.66220982  0.73546780     0.03800
N703        N  0.26505303  0.64315483  0.71619358     0.66300
H704        H  0.27789667  0.64863255  0.79480400     0.15200
H705        H  0.40808614  0.71024527  0.71888911     0.14900
N706        N  0.42093939  0.71639585  0.79725433     0.74000
O707        O  0.23508073  0.60329079  0.72033086    -0.39400
O708        O  0.25556635  0.66588986  0.71137416    -0.39400
O709        O  0.43414329  0.69682829  0.79731362    -0.40100
O710        O  0.44812935  0.75664638  0.79963608    -0.40100
C711        C  0.39731265  0.63886834  0.95268466    -0.12400
C712        C  0.36446356  0.61932611  0.92301743     0.04600
C713        C  0.34746068  0.57896302  0.90790699    -0.07700
C714        C  0.36532751  0.56158959  0.92057949    -0.08400
C715        C  0.39928304  0.58264235  0.94884170    -0.03000
C716        C  0.41489158  0.62152476  0.96521004     0.03800
N717        N  0.45044043  0.64583695  0.99300988     0.66300
H718        H  0.41088114  0.66830782  0.96703023     0.15200
H719        H  0.35218958  0.53107592  0.90839149     0.14900
N720        N  0.31180195  0.55440610  0.88014232     0.74000
O721        O  0.48633500  0.67777703  0.97918556    -0.39400
O722        O  0.92990595  0.63786033  0.03915700    -0.39400
O723        O  0.31872445  0.55283583  0.84349138    -0.40100
O724        O  0.27570059  0.52334138  0.89433444    -0.40100
C725        C  0.38054841  0.77504052  0.88976710    -0.12400
C726        C  0.37361695  0.74764340  0.92068462     0.04600
C727        C  0.38108820  0.76089730  0.96178281    -0.07700
C728        C  0.39437944  0.80050143  0.97062889    -0.08400
C729        C  0.40161685  0.82780074  0.93958601    -0.03000
C730        C  0.39489128  0.81505595  0.89872075     0.03800
N731        N  0.40200556  0.84171801  0.86571236     0.66300
H732        H  0.37557792  0.76571224  0.85814676     0.15200
H733        H  0.40009635  0.81046045  0.00213719     0.14900
N734        N  0.37500096  0.73506953  0.99525666     0.74000
O735        O  0.43663465  0.86276472  0.84696858    -0.39400
O736        O  0.36978893  0.83170429  0.84688858    -0.39400
O737        O  0.40786328  0.74542432  0.01290585    -0.40100
O738        O  0.34154131  0.71544759  0.01566473    -0.40100
C739        C  0.19394199  0.62445713  0.93349180    -0.12400
C740        C  0.16065277  0.57985864  0.93361446     0.04600
C741        C  0.16933727  0.55484006  0.91894887    -0.07700
C742        C  0.21044585  0.57461895  0.90669191    -0.08400
C743        C  0.24398639  0.61894226  0.90828635    -0.03000
C744        C  0.23504389  0.64418379  0.92119557     0.03800
N745        N  0.26682170  0.68963754  0.92410059     0.66300
H746        H  0.18852909  0.64480503  0.94369720     0.15200
H747        H  0.21622435  0.55468620  0.89602045     0.14900
N748        N  0.13762104  0.50939603  0.91579333     0.74000
O749        O  0.26735932  0.71127625  0.89627310    -0.39400
O750        O  0.27988101  0.70563544  0.95921387    -0.39400
O751        O  0.11872050  0.99423823  0.87621847    -0.40100
O752        O  0.13845399  0.48746085  0.94199750    -0.40100
C753        C  0.84561917  0.13949598  0.90405426     0.86400
C754        C  0.86932194  0.18463344  0.92146348    -0.53900
C755        C  0.85458938  0.20328410  0.90653451     0.09300
C756        C  0.81926776  0.17700798  0.87395201     0.20200
C757        C  0.79823410  0.11485168  0.91124066    -0.54600
C758        C  0.78450573  0.13487615  0.89632447     0.09400
C759        C  0.85133271  0.14744916  0.85809476    -0.54100
C760        C  0.83804744  0.16722546  0.84213615     0.10000
H761        H  0.89662797  0.20230896  0.94206479     0.14500
H762        H  0.80813458  0.19274346  0.86069317     0.00200
H763        H  0.77806285  0.08534383  0.92882253     0.14800
H764        H  0.86510838  0.13844654  0.83957489     0.14600
C765        C  0.85868734  0.14747200  0.60937166     0.86400
C766        C  0.81255402  0.12284770  0.59498405    -0.53900
C767        C  0.79709972  0.14134719  0.60554000     0.09300
C768        C  0.82814765  0.18186674  0.63154071     0.20200
C769        C  0.88411477  0.19341966  0.59370857    -0.54600
C770        C  0.86895778  0.21211437  0.60553265     0.09400
C771        C  0.85680281  0.15052064  0.65613528    -0.54100
C772        C  0.84070047  0.16829067  0.66772603     0.10000
H773        H  0.79354451  0.09328735  0.57792931     0.14500
H774        H  0.81450506  0.19550932  0.64160761     0.00200
H775        H  0.91070887  0.20869897  0.57349209     0.14800
H776        H  0.86581121  0.13883030  0.67918360     0.14600
C777        C  0.61972184  0.37210830  0.10113538     0.86400
C778        C  0.66768016  0.39831923  0.09363548    -0.53900
C779        C  0.68423994  0.38278161  0.11255073     0.12300
C780        C  0.65028727  0.34071168  0.13669623     0.20200
C781        C  0.59879352  0.32726103  0.08637598    -0.54600
C782        C  0.61372077  0.31030697  0.10593083     0.09400
C783        C  0.61551071  0.36812963  0.14755639    -0.54100
C784        C  0.63050589  0.35091304  0.16612143     0.10000
H785        H  0.68591521  0.42359722  0.07114493     0.14500
H786        H  0.66285166  0.32697804  0.15182110     0.00200
H787        H  0.57565229  0.31091030  0.06148249     0.14800
H788        H  0.60187528  0.37834858  0.16435008     0.14600
C789        C  0.62236166  0.38339407  0.39855146     0.86400
C790        C  0.60065900  0.33953820  0.41782131    -0.53900
C791        C  0.61588126  0.32140799  0.40487560     0.09300
C792        C  0.65276703  0.34922661  0.37477684     0.20200
C793        C  0.67049946  0.41105816  0.40758398    -0.54600
C794        C  0.68640858  0.39321382  0.39537753     0.09400
C795        C  0.61889427  0.37576362  0.35202146    -0.54100
C796        C  0.63474295  0.35789888  0.33980745     0.10000
H797        H  0.57516422  0.32398974  0.43965221     0.14500
H798        H  0.66528718  0.33430300  0.36506877     0.00200
H799        H  0.69002866  0.44141195  0.42321343     0.14800
H800        H  0.60737716  0.38545127  0.32952191     0.14600
Zr801      Zr  0.51233685  0.47411256  0.96653298     2.17500
O802        O  0.51756005  0.45333777  0.90024377    -0.51500
O803        O  0.54259487  0.44970265  0.00663609    -0.74700
O804        O  0.58421640  0.02313687  0.94192711    -0.81500
O805        O  0.89952885  0.37099369  0.97725536    -0.83200
O806        O  0.61449150  0.08956586  0.96175382    -0.78800
O807        O  0.96193239  0.40069688  0.94664054    -0.90500
O808        O  0.54370571  0.46417694  0.07311905    -0.76400
O809        O  0.55000194  0.02503502  0.01828341    -0.85900
O810        O  0.97069832  0.44195428  0.02668950    -0.85600
O811        O  0.52424552  0.03797950  0.94021410    -0.72400
O812        O  0.94775976  0.45825101  0.94978193    -0.84500
Zr813      Zr  0.95261022  0.03818641  0.03856741     2.26400
Zr814      Zr  0.56197827  0.08681549  0.99579087     2.06300
Zr815      Zr  0.90594074  0.42639896  0.00978985     2.10000
Zr816      Zr  0.51253264  0.49636133  0.07756505     1.78800
O817        O  0.84313750  0.38529240  0.96485013    -0.93300
O818        O  0.57150753  0.03933026  0.11512323    -0.41100
O819        O  0.94448385  0.47669037  0.06444219    -0.77700
O820        O  0.51872500  0.05481458  0.05534455    -0.96400
O821        O  0.99347212  0.06873156  0.97815616    -0.89700
O822        O  0.91199241  0.98476529  0.98738356    -0.92600
C823        C  0.55104754  0.44965581  0.04455296     1.01200
C824        C  0.92289179  0.36909586  0.95518741     1.14100
C825        C  0.61607319  0.06334783  0.94477970     1.04900
O826        O  0.62594563  0.12877706  0.03916659    -0.94700
O827        O  0.57196801  0.14478332  0.02683616    -0.90500
O828        O  0.50760971  0.11662215  0.05110587    -0.83600
C829        C  0.54772053  0.14801342  0.04502078     1.11500
O830        O  0.96179597  0.99972772  0.85993387    -0.96700
Zr831      Zr  0.95299540  0.01515331  0.92746863     1.88900
O832        O  0.92456244  0.06384106  0.99789860    -0.73300
O833        O  0.59359401  0.14414921  0.94569168    -0.52600
O834        O  0.50292055  0.08865027  0.88313295    -0.97300
O835        O  0.89252664  0.47013236  0.88949281    -0.54500
O836        O  0.91938294  0.04476785  0.93231906    -0.73900
C837        C  0.91438599  0.06187728  0.96028879     0.98500
O838        O  0.94300170  0.05439646  0.10542084    -0.62700
O839        O  0.87340977  0.36887848  0.05980789    -0.57500
O840        O  0.88141475  0.48606263  0.06278727    -0.94200
O841        O  0.85087281  0.41920211  0.04372992    -0.92600
O842        O  0.96917437  0.43127358  0.12385293    -0.93000
O843        O  0.00943223  0.01942945  0.14625040    -0.91700
C844        C  0.84928959  0.44536572  0.06041918     1.17300
H845        H  0.96469526  0.41606532  0.03412058     0.33300
H846        H  0.53293916  0.07478101  0.07755969     0.44100
H847        H  0.88903620  0.47947790  0.98300168     0.37600
H848        H  0.54200091  0.04972890  0.91606257     0.34100
H849        H  0.59277622  0.04201720  0.09916445     0.25900
H850        H  0.62335489  0.16703472  0.95563090     0.31800
H851        H  0.96996014  0.07388109  0.86599807     0.37800
H852        H  0.99062951  0.43531387  0.14244394     0.32200
H853        H  0.87525958  0.38153656  0.08574646     0.31100
H854        H  0.85413749  0.38773010  0.93767962     0.32800
H855        H  0.86402912  0.95964010  0.90629494     0.31700
H856        H  0.47974340  0.01185712  0.14222039     0.35700
H857        H  0.92781009  0.02761522  0.12141278     0.28500
H858        H  0.53787687  0.44898931  0.90433369     0.32700
H859        H  0.96353887  0.97753534  0.86462262     0.35600
H860        H  0.84258290  0.34834418  0.05238409     0.28200
H861        H  0.97190640  0.07406968  0.11818370     0.41000
H862        H  0.63126548  0.10948416  0.04550094     0.31100
H863        H  0.58022126  0.06776227  0.11262992     0.38700
H864        H  0.86956057  0.45556672  0.90970566     0.30600
H865        H  0.59634722  0.13335309  0.92089307     0.30600
H866        H  0.53257948  0.47912902  0.88274211     0.30900
Zr867      Zr  0.96041591  0.05099806  0.46971619     2.17500
O868        O  0.94954731  0.07388454  0.40585625    -0.51500
O869        O  0.93570429  0.07564701  0.51500756    -0.74700
O870        O  0.88428010  0.49893863  0.44982796    -0.81500
O871        O  0.58015907  0.15605958  0.48547097    -0.83200
O872        O  0.85542928  0.43241198  0.47009387    -0.78800
O873        O  0.51471689  0.12772425  0.46088897    -0.90500
O874        O  0.94315925  0.06233993  0.58025462    -0.76400
O875        O  0.92736610  0.50140193  0.52403386    -0.85900
O876        O  0.01032608  0.08276552  0.52528608    -0.85600
O877        O  0.94449713  0.48714370  0.44491500    -0.72400
O878        O  0.52503966  0.06780562  0.45429912    -0.84500
Zr879      Zr  0.52282208  0.48279997  0.53695422     2.26400
Zr880      Zr  0.91235694  0.43867378  0.50193249     2.06300
Zr881      Zr  0.57174302  0.09633557  0.51291812     2.10000
Zr882      Zr  0.97570382  0.03186713  0.57907488     1.78800
O883        O  0.63359120  0.14164379  0.46929823    -0.93300
O884        O  0.91570125  0.48870663  0.62113318    -0.41100
O885        O  0.53644626  0.04357924  0.56593761    -0.77700
O886        O  0.96226202  0.47118818  0.55809242    -0.96400
O887        O  0.97357303  0.45174352  0.47891135    -0.89700
O888        O  0.55822990  0.03575797  0.48622154    -0.92600
C889        C  0.93214280  0.07641999  0.55369409     1.01200
C890        C  0.55482176  0.15928049  0.46748997     1.14100
C891        C  0.85250672  0.45828606  0.45328236     1.04900
O892        O  0.85697547  0.40518046  0.55255269    -0.94700
O893        O  0.90574203  0.38129810  0.53324849    -0.90500
O894        O  0.97291435  0.40925793  0.54984904    -0.83600
C895        C  0.93213720  0.37800917  0.54791746     1.11500
O896        O  0.98863772  0.01390398  0.35639076    -0.96700
Zr897      Zr  0.50443298  0.49830270  0.42709860     1.88900
O898        O  0.54566345  0.45592245  0.49248534    -0.73300
O899        O  0.86996229  0.37641175  0.45766225    -0.52600
O900        O  0.95925053  0.43564065  0.38439840    -0.97300
O901        O  0.57635630  0.05781327  0.39187051    -0.54500
O902        O  0.53389294  0.46448512  0.42685445    -0.73900
C903        C  0.54652948  0.45221195  0.45383814     0.98500
O904        O  0.53732097  0.46734875  0.60367035    -0.62700
O905        O  0.60711152  0.14792936  0.56816082    -0.57500
O906        O  0.59566037  0.02937282  0.56196377    -0.94200
O907        O  0.62572807  0.09652904  0.54198252    -0.92600
O908        O  0.51739660  0.08717333  0.63384621    -0.93000
O909        O  0.99334251  0.01946832  0.64543002    -0.91700
C910        C  0.62758130  0.06964908  0.55842276     1.17300
H911        H  0.51660316  0.10745388  0.54305786     0.33300
H912        H  0.95057240  0.45160293  0.58098233     0.44100
H913        H  0.58457888  0.04296694  0.47945039     0.37600
H914        H  0.92491862  0.47529060  0.42259981     0.34100
H915        H  0.88795849  0.97245559  0.60114965     0.25900
H916        H  0.84199974  0.35571463  0.47106871     0.31800
H917        H  0.93139848  0.41847396  0.39791679     0.37800
H918        H  0.00649081  0.09441257  0.63987985     0.32200
H919        H  0.59504051  0.16165563  0.56680324     0.31100
H920        H  0.65608686  0.16647599  0.48648700     0.32800
H921        H  0.59799725  0.05891256  0.40657158     0.31700
H922        H  0.00362775  0.50715071  0.64123537     0.35700
H923        H  0.51001515  0.94648725  0.61766461     0.28500
H924        H  0.92819040  0.07618875  0.41168850     0.32700
H925        H  0.99959136  0.50567730  0.33721689     0.35600
H926        H  0.59530515  0.13028457  0.59327742     0.28200
H927        H  0.01141980  0.44965687  0.61399123     0.41000
H928        H  0.83096061  0.37941550  0.53896915     0.31100
H929        H  0.90709067  0.46030804  0.62016398     0.38700
H930        H  0.58505070  0.08578502  0.39736379     0.30600
H931        H  0.86392036  0.38537132  0.43264372     0.30600
H932        H  0.93457030  0.04915156  0.38736294     0.30900
C933        C  0.80704133  0.46780358  0.41504166    -0.12400
C934        C  0.80983970  0.44036033  0.43659066     0.04600
C935        C  0.77161824  0.39694530  0.44154295    -0.07700
C936        C  0.73284391  0.38293092  0.42605986    -0.08400
C937        C  0.72995310  0.41077527  0.40650186    -0.03000
C938        C  0.76784298  0.45375030  0.40034524     0.03800
N939        N  0.76803721  0.48379937  0.37874072     0.66300
H940        H  0.83549057  0.50090832  0.40979682     0.15200
H941        H  0.70425042  0.34986480  0.43095601     0.14900
N942        N  0.77021016  0.36627693  0.46345550     0.74000
O943        O  0.76048320  0.00687141  0.43642593    -0.39400
O944        O  0.78257984  0.49435547  0.34319803    -0.39400
O945        O  0.75654118  0.35711346  0.49932398    -0.40100
O946        O  0.76567079  0.33829133  0.44326522    -0.40100
C947        C  0.57417295  0.39980716  0.38857482    -0.12400
C948        C  0.60309913  0.40175663  0.41379264     0.04600
C949        C  0.61011474  0.41765755  0.45391852    -0.07700
C950        C  0.59123229  0.43350655  0.46592845    -0.08400
C951        C  0.56436730  0.43353335  0.43958041    -0.03000
C952        C  0.55563092  0.41581593  0.40043165     0.03800
N953        N  0.52670016  0.41184104  0.37213833     0.66300
H954        H  0.56365744  0.38419192  0.35948488     0.15200
H955        H  0.59802441  0.44613279  0.49642718     0.14900
N956        N  0.63540429  0.41748488  0.48378659     0.74000
O957        O  0.54228063  0.43785310  0.34263516    -0.39400
O958        O  0.48991800  0.37539032  0.36769277    -0.39400
O959        O  0.67163999  0.45283805  0.49311821    -0.40100
O960        O  0.61615139  0.38804958  0.51024687    -0.40100
C961        C  0.55428286  0.20264803  0.41589161    -0.12400
C962        C  0.57230267  0.20166959  0.45200526     0.04600
C963        C  0.60491533  0.24072424  0.47220510    -0.07700
C964        C  0.61767778  0.27899678  0.45654470    -0.08400
C965        C  0.59983076  0.27970380  0.42036165    -0.03000
C966        C  0.56779115  0.24099698  0.39984442     0.03800
N967        N  0.54847814  0.23948608  0.36259656     0.66300
H968        H  0.52962939  0.17330800  0.39952441     0.15200
H969        H  0.64190498  0.30851590  0.47283534     0.14900
N970        N  0.62482380  0.24265713  0.50917429     0.74000
O971        O  0.56187225  0.23747024  0.32983638    -0.39400
O972        O  0.51056614  0.22431617  0.36337427    -0.39400
O973        O  0.66266647  0.25773128  0.50772243    -0.40100
O974        O  0.14088203  0.25145252  0.51891791    -0.40100
C975        C  0.59417604  0.32623388  0.27560332    -0.12400
C976        C  0.63309953  0.34794303  0.29644856     0.04600
C977        C  0.66944811  0.36377740  0.27424588    -0.07700
C978        C  0.66705774  0.36199348  0.23164468    -0.08400
C979        C  0.62903751  0.34440634  0.21071927    -0.03000
C980        C  0.59170855  0.32437231  0.23327888     0.03800
N981        N  0.55075459  0.30179625  0.21440370     0.66300
H982        H  0.56553910  0.31215899  0.29233272     0.15200
H983        H  0.69583797  0.37685878  0.21482672     0.14900
N984        N  0.70987031  0.38470598  0.29352760     0.74000
O985        O  0.52528104  0.26151564  0.21454101    -0.39400
O986        O  0.53521873  0.31913499  0.21404447    -0.39400
O987        O  0.72270150  0.36481219  0.29628745    -0.40100
O988        O  0.73733106  0.42499178  0.29262869    -0.40100
C989        C  0.54900820  0.19113983  0.09590923    -0.12400
C990        C  0.56718098  0.19033262  0.06142747     0.04600
C991        C  0.60301728  0.22981871  0.04415127    -0.07700
C992        C  0.61826800  0.26829378  0.06045485    -0.08400
C993        C  0.59925838  0.26877322  0.09405255    -0.03000
C994        C  0.56467992  0.22968724  0.11239194     0.03800
N995        N  0.54401133  0.22779547  0.14706124     0.66300
H996        H  0.03032991  0.16231560  0.11468625     0.15200
H997        H  0.64455839  0.29816379  0.04588455     0.14900
N998        N  0.62359782  0.23223276  0.00906749     0.74000
O999        O  0.02047723  0.21617021  0.15817687    -0.39400
O1000       O  0.55086972  0.21823614  0.18093494    -0.39400
O1001       O  0.61678208  0.24236526  0.97557080    -0.40100
O1002       O  0.65848952  0.24081783  0.01429959    -0.40100
C1003       C  0.73226796  0.37071207  0.09425545    -0.12400
C1004       C  0.72798675  0.40001493  0.10320496     0.04600
C1005       C  0.76463088  0.44427911  0.09969519    -0.07700
C1006       C  0.80348349  0.45754339  0.08729352    -0.08400
C1007       C  0.80746340  0.42820530  0.07680033    -0.03000
C1008       C  0.77080863  0.38393380  0.08070753     0.03800
N1009       N  0.77093937  0.35123097  0.07056005     0.66300
H1010       H  0.70485161  0.33675639  0.09617480     0.15200
H1011       H  0.83057434  0.49160274  0.08483623     0.14900
N1012       N  0.76401895  0.47690974  0.10872332     0.74000
O1013       O  0.77167552  0.33124445  0.09936067    -0.39400
O1014       O  0.75409974  0.33244504  0.03696226    -0.39400
O1015       O  0.78135288  0.49682422  0.14175719    -0.40100
O1016       O  0.76301072  0.49610096  0.07921419    -0.40100
C1017       C  0.62828723  0.43405166  0.07229895    -0.12400
C1018       C  0.60083825  0.39050574  0.08280318     0.04600
C1019       C  0.55614954  0.36661600  0.08081067    -0.07700
C1020       C  0.54064203  0.38631248  0.06741933    -0.08400
C1021       C  0.56873707  0.42982429  0.05652166    -0.03000
C1022       C  0.61303847  0.45356197  0.05901554     0.03800
N1023       N  0.63954274  0.99730442  0.04854764     0.66300
H1024       H  0.66243905  0.45480515  0.07632900     0.15200
H1025       H  0.50645994  0.36768166  0.06618927     0.14900
N1026       N  0.52606062  0.32229710  0.09183415     0.74000
O1027       O  0.65651792  0.02192673  0.07882219    -0.39400
O1028       O  0.66103739  0.00987914  0.01662041    -0.39400
O1029       O  0.52346327  0.31099219  0.12838918    -0.40100
O1030       O  0.50710509  0.29436746  0.06430129    -0.40100
C1031       C  0.89253963  0.10088430  0.54080784    -0.12400
C1032       C  0.91379377  0.09442850  0.56858301     0.04600
C1033       C  0.91722268  0.10594344  0.60966538    -0.07700
C1034       C  0.89922978  0.12242531  0.62174360    -0.08400
C1035       C  0.87702148  0.12816889  0.59443840    -0.03000
C1036       C  0.87485862  0.11791219  0.55287785     0.03800
N1037       N  0.85592940  0.12528188  0.52171134     0.66300
H1038       H  0.88973418  0.09298513  0.50900394     0.15200
H1039       H  0.90518873  0.13242203  0.65292557     0.14900
N1040       N  0.94063503  0.10354894  0.63998553     0.74000
O1041       O  0.88048701  0.15848563  0.50001099    -0.39400
O1042       O  0.82045870  0.09323977  0.50647799    -0.39400
O1043       O  0.97678768  0.13805206  0.65102674    -0.40100
O1044       O  0.91975663  0.07288421  0.66510914    -0.40100
C1045       C  0.85846730  0.26204580  0.58612801    -0.12400
C1046       C  0.88690979  0.25549070  0.59145761     0.04600
C1047       C  0.93062795  0.29026408  0.58285901    -0.07700
C1048       C  0.94388970  0.32919308  0.56879905    -0.08400
C1049       C  0.91519043  0.33548696  0.56322026    -0.03000
C1050       C  0.87179477  0.30106068  0.57264321     0.03800
N1051       N  0.84030409  0.30456115  0.57011053     0.66300
H1052       H  0.82483230  0.23647627  0.59183814     0.15200
H1053       H  0.97744740  0.35487163  0.56229803     0.14900
N1054       N  0.96300152  0.28832049  0.58957834     0.74000
O1055       O  0.81551085  0.28897814  0.53936216    -0.39400
O1056       O  0.82713739  0.30669684  0.60299724    -0.39400
O1057       O  0.97855468  0.28598420  0.55881694    -0.40100
O1058       O  0.98620566  0.30565879  0.62127061    -0.40100
C1059       C  0.70469900  0.11811061  0.54721455    -0.12400
C1060       C  0.67027392  0.08671205  0.57183997     0.04600
C1061       C  0.67800423  0.07240140  0.60703492    -0.07700
C1062       C  0.71974987  0.09084033  0.61728640    -0.08400
C1063       C  0.75396193  0.12312087  0.59328896    -0.03000
C1064       C  0.74610312  0.13579275  0.55717059     0.03800
N1065       N  0.77875851  0.16388295  0.52842125     0.66300
H1066       H  0.69927791  0.12808326  0.51906994     0.15200
H1067       H  0.72539321  0.07913946  0.64363542     0.14900
N1068       N  0.64460249  0.03985664  0.63319721     0.74000
O1069       O  0.78304229  0.14737247  0.50009856    -0.39400
O1070       O  0.79007140  0.19994444  0.52223441    -0.39400
O1071       O  0.63270699  0.00324874  0.63176156    -0.40100
O1072       O  0.63969452  0.05117738  0.66583800    -0.40100
C1073       C  0.80378554  0.15982827  0.77582820    -0.12400
C1074       C  0.84108149  0.17687515  0.79788406     0.04600
C1075       C  0.87918538  0.19781533  0.77638383    -0.07700
C1076       C  0.87829599  0.19750586  0.73391285    -0.08400
C1077       C  0.84013606  0.17639834  0.71162325    -0.03000
C1078       C  0.80286678  0.15949077  0.73303527     0.03800
N1079       N  0.76296223  0.13910629  0.71287457     0.66300
H1080       H  0.77438689  0.14412685  0.79186678     0.15200
H1081       H  0.90762405  0.21227888  0.71815852     0.14900
N1082       N  0.91936426  0.21963196  0.79675065     0.74000
O1083       O  0.73453203  0.09889882  0.71526723    -0.39400
O1084       O  0.75123863  0.15994805  0.70882614    -0.39400
O1085       O  0.93524490  0.20262124  0.79714171    -0.40100
O1086       O  0.94429727  0.25977075  0.79953911    -0.40100
C1087       C  0.88823978  0.13280533  0.95447368    -0.12400
C1088       C  0.86014489  0.11628666  0.92063800     0.04600
C1089       C  0.84692662  0.07840609  0.90282847    -0.07700
C1090       C  0.86509687  0.06155673  0.91629771    -0.08400
C1091       C  0.89534549  0.08034019  0.94820090    -0.03000
C1092       C  0.90616856  0.11598359  0.96787370     0.03800
N1093       N  0.93640535  0.13704600  0.00088976     0.66300
H1094       H  0.89668665  0.15878610  0.97208517     0.15200
H1095       H  0.85493278  0.03305482  0.90183695     0.14900
N1096       N  0.81460040  0.05560038  0.87164416     0.74000
O1097       O  0.97395243  0.17112220  0.99328610    -0.39400
O1098       O  0.43550479  0.14456009  0.03242428    -0.39400
O1099       O  0.82590824  0.05721378  0.83598736    -0.40100
O1100       O  0.77736659  0.02290360  0.88204399    -0.40100
C1101       C  0.88422830  0.27573238  0.88977095    -0.12400
C1102       C  0.87168163  0.24541104  0.91984987     0.04600
C1103       C  0.87557117  0.25604430  0.96132272    -0.07700
C1104       C  0.89093283  0.29622487  0.97147025    -0.08400
C1105       C  0.90437674  0.32683030  0.94143991    -0.03000
C1106       C  0.90154772  0.31663556  0.90013971     0.03800
N1107       N  0.91586016  0.34687474  0.86812738     0.66300
H1108       H  0.88179420  0.26805611  0.85793164     0.15200
H1109       H  0.89372975  0.30407546  0.00332095     0.14900
N1110       N  0.86473132  0.22721506  0.99381990     0.74000
O1111       O  0.95154611  0.36488860  0.85274365    -0.39400
O1112       O  0.88805719  0.34290932  0.84648362    -0.39400
O1113       O  0.89486395  0.23321248  0.01288215    -0.40100
O1114       O  0.83048097  0.20895601  0.01236877    -0.40100
C1115       C  0.69195257  0.12539209  0.92967618    -0.12400
C1116       C  0.65780129  0.08105180  0.92821714     0.04600
C1117       C  0.66556394  0.05558936  0.91262804    -0.07700
C1118       C  0.70670536  0.07455316  0.90130376    -0.08400
C1119       C  0.74114489  0.11852197  0.90479830    -0.03000
C1120       C  0.73312102  0.14431927  0.91851599     0.03800
N1121       N  0.76593568  0.18935026  0.92417603     0.66300
H1122       H  0.68727964  0.14606523  0.94077407     0.15200
H1123       H  0.71182085  0.05426000  0.89007575     0.14900
N1124       N  0.63291467  0.01037169  0.90824258     0.74000
O1125       O  0.76939340  0.21343592  0.89725983    -0.39400
O1126       O  0.77639449  0.20276835  0.96028041    -0.39400
O1127       O  0.62063957  0.49266086  0.87638496    -0.40100
O1128       O  0.63109573  0.98703031  0.93486384    -0.40100
C1129       C  0.84830766  0.64000312  0.90752759     0.86400
C1130       C  0.87070624  0.68481317  0.92495135    -0.53900
C1131       C  0.85586725  0.70300764  0.90895686     0.09300
C1132       C  0.82163736  0.67650536  0.87536343     0.20200
C1133       C  0.80055741  0.61465853  0.91327666    -0.54600
C1134       C  0.78650301  0.63402238  0.89729265     0.09400
C1135       C  0.85527648  0.64812153  0.86157196    -0.54100
C1136       C  0.84191758  0.66748134  0.84440563     0.10000
H1137       H  0.89683380  0.70247694  0.94681760     0.14500
H1138       H  0.81032586  0.69181462  0.86136802     0.00200
H1139       H  0.78035637  0.58525720  0.93100724     0.14800
H1140       H  0.86934995  0.63888275  0.84395581     0.14600
C1141       C  0.86141950  0.64958321  0.60914790     0.86400
C1142       C  0.81504284  0.62355088  0.59486128    -0.53900
C1143       C  0.79792160  0.64030006  0.60584466     0.09300
C1144       C  0.82801529  0.68097713  0.63216543     0.20200
C1145       C  0.88518711  0.69517965  0.59382138    -0.54600
C1146       C  0.86840018  0.71212997  0.60590975     0.09400
C1147       C  0.85971668  0.65244324  0.65599995    -0.54100
C1148       C  0.84238787  0.66881864  0.66832051     0.10000
H1149       H  0.79740796  0.59479424  0.57670233     0.14500
H1150       H  0.81356650  0.69398281  0.64174942     0.00200
H1151       H  0.91183941  0.71160343  0.57343654     0.14800
H1152       H  0.87058281  0.64247617  0.67883094     0.14600
C1153       C  0.61685805  0.87155443  0.09786159     0.86400
C1154       C  0.66525981  0.89877582  0.09198858    -0.53900
C1155       C  0.68163887  0.88324855  0.11136798     0.12300
C1156       C  0.64740584  0.84051900  0.13435185     0.20200
C1157       C  0.59737301  0.82734566  0.08235045    -0.54600
C1158       C  0.61238533  0.81052853  0.10228059     0.09400
C1159       C  0.61111892  0.86645495  0.14408967    -0.54100
C1160       C  0.62625982  0.84959948  0.16315041     0.10000
H1161       H  0.68411957  0.92467448  0.07016013     0.14500
H1162       H  0.66012886  0.82707967  0.14982568     0.00200
H1163       H  0.57497660  0.81129858  0.05685905     0.14800
H1164       H  0.59723982  0.87662830  0.16046291     0.14600
C1165       C  0.61918085  0.88173492  0.39693088     0.86400
C1166       C  0.59727327  0.83681239  0.41347862    -0.53900
C1167       C  0.61454509  0.82072800  0.40032281     0.09300
C1168       C  0.65299692  0.85136997  0.37203055     0.20200
C1169       C  0.66679524  0.90948719  0.40849651    -0.54600
C1170       C  0.68511371  0.89425168  0.39550825     0.09400
C1171       C  0.61816453  0.87691006  0.35008389    -0.54100
C1172       C  0.63565950  0.86101069  0.33724245     0.10000
H1173       H  0.57042211  0.81922827  0.43388274     0.14500
H1174       H  0.66591579  0.83742965  0.36066009     0.00200
H1175       H  0.68372701  0.93796259  0.42668028     0.14800
H1176       H  0.60509767  0.88469640  0.32749071     0.14600
Zr1177     Zr  0.51099122  0.97544191  0.96402709     2.17500
O1178       O  0.51814415  0.95506302  0.89851234    -0.51500
O1179       O  0.54036836  0.95024616  0.00441048    -0.74700
O1180       O  0.58540110  0.52124227  0.94351024    -0.81500
O1181       O  0.89567324  0.86939033  0.97915820    -0.83200
O1182       O  0.61505188  0.58816680  0.96082208    -0.78800
O1183       O  0.95834526  0.89890349  0.94926755    -0.90500
O1184       O  0.53697781  0.96002722  0.07130666    -0.76400
O1185       O  0.55353795  0.52727084  0.01765720    -0.85900
O1186       O  0.96859608  0.94219775  0.02865605    -0.85600
O1187       O  0.52274855  0.53457154  0.94061346    -0.72400
O1188       O  0.94333066  0.95481634  0.95124087    -0.84500
Zr1189     Zr  0.95599618  0.53831037  0.04108351     2.26400
Zr1190     Zr  0.56239638  0.58679504  0.99319847     2.06300
Zr1191     Zr  0.90305496  0.92530188  0.01227598     2.10000
Zr1192     Zr  0.50501478  0.99134337  0.07564966     1.78800
O1193       O  0.83724458  0.88257480  0.97157310    -0.93300
O1194       O  0.58325886  0.54790459  0.10920261    -0.41100
O1195       O  0.94278600  0.97819025  0.06461744    -0.77700
O1196       O  0.52245966  0.55711770  0.05486015    -0.96400
O1197       O  0.99821654  0.57093849  0.98174096    -0.89700
O1198       O  0.91619191  0.48730948  0.98782860    -0.92600
C1199       C  0.54657664  0.94784950  0.04248028     1.01200
C1200       C  0.91922282  0.86731786  0.95761042     1.14100
C1201       C  0.61706473  0.56163591  0.94528612     1.04900
O1202       O  0.63068771  0.63764740  0.02919404    -0.94700
O1203       O  0.57174944  0.64469073  0.02427201    -0.90500
O1204       O  0.50862196  0.61615912  0.05249900    -0.83600
C1205       C  0.54806726  0.64776834  0.04408477     1.11500
O1206       O  0.96891606  0.51104134  0.85913432    -0.96700
Zr1207     Zr  0.95867560  0.52012119  0.92898621     1.88900
O1208       O  0.92680237  0.56390797  0.00260209    -0.73300
O1209       O  0.58503890  0.63591568  0.93644852    -0.52600
O1210       O  0.49572248  0.58099086  0.88398653    -0.97300
O1211       O  0.88519449  0.96109499  0.89170161    -0.54500
O1212       O  0.92367014  0.54799142  0.93622467    -0.73900
C1213       C  0.91730481  0.56320999  0.96501796     0.98500
O1214       O  0.94520115  0.55362743  0.10783276    -0.62700
O1215       O  0.87253178  0.87023890  0.06478750    -0.57500
O1216       O  0.87785510  0.98684334  0.05972388    -0.94200
O1217       O  0.84928533  0.91918580  0.04751333    -0.92600
O1218       O  0.96828850  0.93890517  0.12955507    -0.93000
O1219       O  0.00467743  0.51128104  0.14692734    -0.91700
C1220       C  0.84672594  0.94585787  0.06069204     1.17300
H1221       H  0.96289473  0.91661043  0.03679199     0.33300
H1222       H  0.53756729  0.57808889  0.07598862     0.44100
H1223       H  0.88477088  0.97655282  0.98251410     0.37600
H1224       H  0.53904339  0.54524403  0.91609422     0.34100
H1225       H  0.58498823  0.53094845  0.12907710     0.25900
H1226       H  0.56898515  0.64530217  0.93931319     0.31800
H1227       H  0.98249949  0.58550582  0.87266769     0.37800
H1228       H  0.96604858  0.91558059  0.11908551     0.32200
H1229       H  0.88000394  0.85329466  0.05723735     0.31100
H1230       H  0.81786125  0.85478828  0.98611578     0.32800
H1231       H  0.88952970  0.48838834  0.87357803     0.31700
H1232       H  0.49603854  0.52786627  0.14163483     0.35700
H1233       H  0.93364025  0.52814021  0.12469746     0.28500
H1234       H  0.53809342  0.95036487  0.90362326     0.32700
H1235       H  0.97559325  0.49247771  0.86145833     0.35600
H1236       H  0.89010491  0.88587180  0.08951134     0.28200
H1237       H  0.97414769  0.57642940  0.11953693     0.41000
H1238       H  0.63846549  0.62086680  0.03809760     0.31100
H1239       H  0.60330489  0.55559628  0.08763485     0.38700
H1240       H  0.87773418  0.93368284  0.89836641     0.30600
H1241       H  0.61497872  0.66151812  0.94340015     0.30600
H1242       H  0.53388086  0.98096691  0.88107255     0.30900
Zr1243     Zr  0.96061146  0.55054150  0.46834294     2.17500
O1244       O  0.94791824  0.56975412  0.40300507    -0.51500
O1245       O  0.93618712  0.57631807  0.51227412    -0.74700
O1246       O  0.88492751  0.00152035  0.44926692    -0.81500
O1247       O  0.58147735  0.65327191  0.47178523    -0.83200
O1248       O  0.85480992  0.93422135  0.46816747    -0.78800
O1249       O  0.51449174  0.62614501  0.45569087    -0.90500
O1250       O  0.94735053  0.56681564  0.57761729    -0.76400
O1251       O  0.92569187  0.99994067  0.52368026    -0.85900
O1252       O  0.01129895  0.58414652  0.52335411    -0.85600
O1253       O  0.94383949  0.98820723  0.44384407    -0.72400
O1254       O  0.52258740  0.56293299  0.44862282    -0.84500
Zr1255     Zr  0.52176043  0.98239856  0.53824302     2.26400
Zr1256     Zr  0.91034377  0.93767188  0.49901800     2.06300
Zr1257     Zr  0.57382318  0.59548405  0.50382491     2.10000
Zr1258     Zr  0.97842182  0.53497140  0.57856083     1.78800
O1259       O  0.63282481  0.63644942  0.45661364    -0.93300
O1260       O  0.91209876  0.98382433  0.62028018    -0.41100
O1261       O  0.54164270  0.54726485  0.56055855    -0.77700
O1262       O  0.95901848  0.96834072  0.55633946    -0.96400
O1263       O  0.97151452  0.95036981  0.47674560    -0.89700
O1264       O  0.55611875  0.53168608  0.48101735    -0.92600
C1265       C  0.93472282  0.57922942  0.55097914     1.01200
C1266       C  0.55533800  0.65697867  0.45724946     1.14100
C1267       C  0.85286503  0.96095520  0.45175263     1.04900
O1268       O  0.84802191  0.89489222  0.54218184    -0.94700
O1269       O  0.90101020  0.87868029  0.53029100    -0.90500
O1270       O  0.96808113  0.90574642  0.54535403    -0.83600
C1271       C  0.92723235  0.87475444  0.54385838     1.11500
O1272       O  0.98974289  0.51437892  0.35746505    -0.96700
Zr1273     Zr  0.51049758  0.00601567  0.42921573     1.88900
O1274       O  0.54673292  0.95786765  0.49342302    -0.73300
O1275       O  0.87740650  0.88365036  0.44624185    -0.52600
O1276       O  0.95730385  0.93638937  0.38292487    -0.97300
O1277       O  0.56651172  0.54565907  0.38387454    -0.54500
O1278       O  0.53901895  0.97126289  0.42833879    -0.73900
C1279       C  0.54948373  0.95644357  0.45472903     0.98500
O1280       O  0.53680525  0.96348688  0.60221981    -0.62700
O1281       O  0.61261298  0.65083194  0.55567362    -0.57500
O1282       O  0.59807018  0.52998364  0.55588530    -0.94200
O1283       O  0.62892839  0.59638269  0.53212271    -0.92600
O1284       O  0.53311359  0.60335410  0.61911299    -0.93000
O1285       O  0.99333940  0.52208513  0.64617297    -0.91700
C1286       C  0.63040240  0.56984856  0.55038284     1.17300
H1287       H  0.52207390  0.61121130  0.53476824     0.33300
H1288       H  0.94669212  0.94811612  0.57852307     0.44100
H1289       H  0.58153053  0.53765514  0.47306752     0.37600
H1290       H  0.92471056  0.97743475  0.42113968     0.34100
H1291       H  0.89283344  0.48500396  0.60564898     0.25900
H1292       H  0.84866069  0.85920519  0.45652490     0.31800
H1293       H  0.97600780  0.93688356  0.36482161     0.37800
H1294       H  0.01162384  0.59926677  0.63802159     0.32200
H1295       H  0.64214664  0.67221673  0.54558026     0.31100
H1296       H  0.65716020  0.66148074  0.47243637     0.32800
H1297       H  0.58826292  0.54548013  0.39597436     0.31700
H1298       H  0.00026024  0.00168604  0.63968685     0.35700
H1299       H  0.55301620  0.49414655  0.61922567     0.28500
H1300       H  0.92604227  0.57149510  0.40816190     0.32700
H1301       H  0.98684949  0.03582171  0.36127539     0.35600
H1302       H  0.60133437  0.66529318  0.55323446     0.28200
H1303       H  0.00457866  0.94376005  0.61165577     0.41000
H1304       H  0.82591599  0.86871243  0.52626417     0.31100
H1305       H  0.90953570  0.95902138  0.62654014     0.38700
H1306       H  0.57770963  0.57466346  0.38946577     0.30600
H1307       H  0.87199266  0.89501066  0.42294816     0.30600
H1308       H  0.93320153  0.54423536  0.38566520     0.30900
C1309       C  0.80425965  0.97251891  0.42815276    -0.12400
C1310       C  0.81080560  0.94413546  0.43491873     0.04600
C1311       C  0.77678882  0.90054782  0.42539971    -0.07700
C1312       C  0.73770950  0.88652765  0.41122338    -0.08400
C1313       C  0.72999825  0.91408223  0.40645167    -0.03000
C1314       C  0.76479210  0.95833664  0.41403669     0.03800
N1315       N  0.76231424  0.99022330  0.40623828     0.66300
H1316       H  0.82993888  0.00631338  0.43421174     0.15200
H1317       H  0.71312326  0.85296015  0.40480370     0.14900
N1318       N  0.78065390  0.86934034  0.42899431     0.74000
O1319       O  0.77050490  0.51037432  0.39922367    -0.39400
O1320       O  0.77897834  0.01232386  0.37413781    -0.39400
O1321       O  0.76334160  0.84380966  0.45887394    -0.40100
O1322       O  0.78527916  0.85721406  0.39678436    -0.40100
C1323       C  0.58034078  0.90911344  0.38574024    -0.12400
C1324       C  0.59950433  0.89954778  0.41295166     0.04600
C1325       C  0.59993165  0.90745653  0.45496179    -0.07700
C1326       C  0.58331765  0.92551756  0.46756458    -0.08400
C1327       C  0.56586265  0.93642865  0.43967568    -0.03000
C1328       C  0.56435631  0.92746677  0.39812754     0.03800
N1329       N  0.54679919  0.93646922  0.36702558     0.66300
H1330       H  0.57677657  0.90278064  0.35381651     0.15200
H1331       H  0.58463351  0.93139038  0.49974480     0.14900
N1332       N  0.61703544  0.89773601  0.48586289     0.74000
O1333       O  0.57250547  0.96901547  0.34486917    -0.39400
O1334       O  0.51045378  0.90548138  0.35231163    -0.39400
O1335       O  0.65287055  0.92842310  0.50166881    -0.40100
O1336       O  0.59108452  0.86431159  0.50692441    -0.40100
C1337       C  0.54452057  0.70089147  0.41876235    -0.12400
C1338       C  0.57245884  0.69937128  0.44133905     0.04600
C1339       C  0.61468461  0.73847326  0.44907591    -0.07700
C1340       C  0.62692254  0.77714205  0.43572216    -0.08400
C1341       C  0.59892502  0.77838264  0.41348517    -0.03000
C1342       C  0.55715447  0.73955455  0.40492434     0.03800
N1343       N  0.52697648  0.73803599  0.38159628     0.66300
H1344       H  0.51220910  0.67173530  0.41154731     0.15200
H1345       H  0.65837686  0.80662150  0.44406657     0.14900
N1346       N  0.64579425  0.74048647  0.47105339     0.74000
O1347       O  0.52159144  0.72818622  0.34450680    -0.39400
O1348       O  0.49651257  0.73017417  0.40005280    -0.39400
O1349       O  0.67466327  0.74665697  0.45110708    -0.40100
O1350       O  0.15378870  0.75320742  0.50497931    -0.40100
C1351       C  0.59336818  0.82849538  0.27373663    -0.12400
C1352       C  0.63292227  0.85055181  0.29365543     0.04600
C1353       C  0.66857974  0.86605682  0.27040187    -0.07700
C1354       C  0.66460869  0.86261099  0.22790160    -0.08400
C1355       C  0.62602402  0.84472689  0.20791839    -0.03000
C1356       C  0.58963789  0.82617896  0.23143912     0.03800
N1357       N  0.54864758  0.80564649  0.21357117     0.66300
H1358       H  0.56528150  0.81497413  0.29116951     0.15200
H1359       H  0.69280889  0.87687246  0.21033138     0.14900
N1360       N  0.70990987  0.88864287  0.28837380     0.74000
O1361       O  0.52112983  0.76532870  0.21387273    -0.39400
O1362       O  0.53569313  0.82544284  0.21348856    -0.39400
O1363       O  0.72458878  0.87045367  0.28975692    -0.40100
O1364       O  0.73589734  0.92896805  0.28788943    -0.40100
C1365       C  0.55916819  0.69341915  0.09937116    -0.12400
C1366       C  0.56762202  0.69039725  0.05946383     0.04600
C1367       C  0.59379616  0.72799594  0.03541608    -0.07700
C1368       C  0.60878114  0.76673045  0.05075105    -0.08400
C1369       C  0.59917430  0.76943162  0.09005353    -0.03000
C1370       C  0.57512768  0.73249783  0.11504884     0.03800
N1371       N  0.56453822  0.73302576  0.15562353     0.66300
H1372       H  0.03028648  0.66283703  0.11379996     0.15200
H1373       H  0.62759202  0.79495856  0.03140521     0.14900
N1374       N  0.60396702  0.72762202  0.99460925     0.74000
O1375       O  0.01627629  0.71654669  0.15025840    -0.39400
O1376       O  0.58382010  0.73124972  0.18454427    -0.39400
O1377       O  0.58431992  0.72940810  0.96613988    -0.40100
O1378       O  0.64077525  0.74151287  0.98800835    -0.40100
C1379       C  0.72912978  0.87117403  0.09216238    -0.12400
C1380       C  0.72535346  0.90047014  0.10270131     0.04600
C1381       C  0.76237114  0.94466583  0.10123735    -0.07700
C1382       C  0.80131466  0.95798735  0.08907838    -0.08400
C1383       C  0.80489867  0.92870101  0.07700403    -0.03000
C1384       C  0.76776369  0.88441313  0.07916458     0.03800
N1385       N  0.76733629  0.85169958  0.06741421     0.66300
H1386       H  0.70119919  0.83726463  0.09223061     0.15200
H1387       H  0.82880651  0.99202616  0.08822174     0.14900
N1388       N  0.76193111  0.97705111  0.11203192     0.74000
O1389       O  0.76821117  0.83102168  0.09527255    -0.39400
O1390       O  0.74960883  0.83344027  0.03379345    -0.39400
O1391       O  0.77845135  0.99522617  0.14591856    -0.40100
O1392       O  0.76170027  0.99771712  0.08361744    -0.40100
C1393       C  0.62472571  0.93319925  0.06913340    -0.12400
C1394       C  0.59766094  0.88958057  0.07927221     0.04600
C1395       C  0.55287563  0.86522043  0.07711700    -0.07700
C1396       C  0.53691394  0.88466735  0.06444131    -0.08400
C1397       C  0.56464581  0.92831934  0.05414215    -0.03000
C1398       C  0.60902464  0.95243347  0.05645534     0.03800
N1399       N  0.64393285  0.49828872  0.05048810     0.66300
H1400       H  0.65889863  0.95424209  0.07305563     0.15200
H1401       H  0.50266405  0.86566381  0.06307586     0.14900
N1402       N  0.52314802  0.82055157  0.08679537     0.74000
O1403       O  0.66127249  0.52337418  0.08041146    -0.39400
O1404       O  0.66529454  0.51011295  0.01857422    -0.39400
O1405       O  0.51989335  0.80808688  0.12301215    -0.40100
O1406       O  0.50550540  0.79366448  0.05835897    -0.40100
C1407       C  0.89963264  0.60864433  0.53832369    -0.12400
C1408       C  0.91722514  0.59796266  0.56615336     0.04600
C1409       C  0.91745308  0.60550752  0.60796683    -0.07700
C1410       C  0.89995960  0.62223103  0.62063270    -0.08400
C1411       C  0.88104980  0.63187506  0.59333090    -0.03000
C1412       C  0.88188756  0.62540526  0.55114696     0.03800
N1413       N  0.86496060  0.63533337  0.52027333     0.66300
H1414       H  0.89928053  0.60380414  0.50602867     0.15200
H1415       H  0.90255184  0.62782704  0.65269619     0.14900
N1416       N  0.93539544  0.59689573  0.63901177     0.74000
O1417       O  0.89095711  0.66960402  0.50031551    -0.39400
O1418       O  0.82999747  0.60459311  0.50322737    -0.39400
O1419       O  0.97086643  0.62830423  0.65479826    -0.40100
O1420       O  0.91007512  0.56335140  0.66010526    -0.40100
C1421       C  0.85432644  0.75785415  0.58055765    -0.12400
C1422       C  0.88440404  0.75435364  0.59106501     0.04600
C1423       C  0.92819735  0.79058373  0.58555132    -0.07700
C1424       C  0.94042060  0.82851290  0.57006168    -0.08400
C1425       C  0.91044939  0.83225495  0.55927456    -0.03000
C1426       C  0.86652863  0.79578094  0.56456052     0.03800
N1427       N  0.83325311  0.79554133  0.55372033     0.66300
H1428       H  0.82054444  0.73045002  0.58366837     0.15200
H1429       H  0.97431573  0.85545849  0.56666164     0.14900
N1430       N  0.96150647  0.79090508  0.59664884     0.74000
O1431       O  0.81388396  0.77918505  0.52007777    -0.39400
O1432       O  0.81352947  0.79522040  0.58210010    -0.39400
O1433       O  0.98056474  0.79006862  0.56839226    -0.40100
O1434       O  0.98175588  0.80871700  0.62963134    -0.40100
C1435       C  0.70719064  0.61249874  0.53894104    -0.12400
C1436       C  0.67264813  0.58647748  0.56514364     0.04600
C1437       C  0.67955252  0.57692889  0.60428486    -0.07700
C1438       C  0.72069043  0.59495081  0.61674897    -0.08400
C1439       C  0.75522475  0.62203301  0.59107880    -0.03000
C1440       C  0.74802670  0.62951390  0.55121086     0.03800
N1441       N  0.78107699  0.65263457  0.52199907     0.66300
H1442       H  0.70227303  0.61888209  0.50828857     0.15200
H1443       H  0.72551488  0.58689353  0.64632109     0.14900
N1444       N  0.64586615  0.55011383  0.63246273     0.74000
O1445       O  0.78265663  0.63150222  0.49695623    -0.39400
O1446       O  0.79645447  0.68965020  0.51191567    -0.39400
O1447       O  0.63193995  0.51296191  0.63882030    -0.40100
O1448       O  0.64218241  0.56771654  0.66007155    -0.40100
C1449       C  0.80830097  0.66189524  0.77795792    -0.12400
C1450       C  0.84501813  0.67646649  0.79965577     0.04600
C1451       C  0.88238664  0.69550061  0.77742640    -0.07700
C1452       C  0.88103883  0.69606211  0.73483733    -0.08400
C1453       C  0.84306888  0.67717762  0.71280068    -0.03000
C1454       C  0.80688381  0.66212657  0.73507692     0.03800
N1455       N  0.76739915  0.64442303  0.71568061     0.66300
H1456       H  0.77948845  0.64780139  0.79433359     0.15200
H1457       H  0.90987135  0.70974384  0.71870662     0.14900
N1458       N  0.92239962  0.71482462  0.79697699     0.74000
O1459       O  0.73724226  0.60441347  0.71759907    -0.39400
O1460       O  0.75812196  0.66746053  0.71325147    -0.39400
O1461       O  0.93562452  0.69530272  0.79622240    -0.40100
O1462       O  0.94963384  0.75505622  0.79964760    -0.40100
C1463       C  0.89234734  0.63493296  0.95804336    -0.12400
C1464       C  0.86277843  0.61705804  0.92524770     0.04600
C1465       C  0.84798393  0.57789768  0.90920166    -0.07700
C1466       C  0.86583234  0.56088415  0.92315772    -0.08400
C1467       C  0.89750230  0.58095497  0.95373637    -0.03000
C1468       C  0.90985394  0.61781957  0.97201770     0.03800
N1469       N  0.94176849  0.64019194  0.00357628     0.66300
H1470       H  0.90286061  0.66253620  0.97408957     0.15200
H1471       H  0.85465350  0.53149864  0.90986181     0.14900
N1472       N  0.81459872  0.55417254  0.87908639     0.74000
O1473       O  0.97928422  0.67283738  0.99381697    -0.39400
O1474       O  0.44316305  0.64597366  0.02991427    -0.39400
O1475       O  0.82452954  0.55398526  0.84332578    -0.40100
O1476       O  0.77757237  0.52236648  0.89087242    -0.40100
C1477       C  0.88337671  0.77475263  0.89253175    -0.12400
C1478       C  0.87143899  0.74460564  0.92254453     0.04600
C1479       C  0.87446431  0.75497949  0.96404353    -0.07700
C1480       C  0.88811736  0.79455761  0.97409540    -0.08400
C1481       C  0.90101844  0.82500929  0.94404974    -0.03000
C1482       C  0.89918754  0.81511863  0.90285029     0.03800
N1483       N  0.91333743  0.84528803  0.87083186     0.66300
H1484       H  0.88180228  0.76746329  0.86072766     0.15200
H1485       H  0.89030623  0.80221003  0.00590473     0.14900
N1486       N  0.86448673  0.72657790  0.99667237     0.74000
O1487       O  0.94981258  0.86471906  0.85658759    -0.39400
O1488       O  0.88539741  0.84000575  0.84807247    -0.39400
O1489       O  0.89519790  0.73437982  0.01653187    -0.40100
O1490       O  0.82950885  0.70658541  0.01448280    -0.40100
C1491       C  0.69307098  0.62368727  0.92980566    -0.12400
C1492       C  0.65909245  0.57926097  0.92912959     0.04600
C1493       C  0.66733414  0.55381549  0.91453463    -0.07700
C1494       C  0.70856994  0.57301273  0.90296126    -0.08400
C1495       C  0.74277086  0.61718815  0.90542767    -0.03000
C1496       C  0.73431839  0.64278787  0.91855606     0.03800
N1497       N  0.76689617  0.68790000  0.92368122     0.66300
H1498       H  0.68820590  0.64436893  0.94035217     0.15200
H1499       H  0.71397454  0.55273560  0.89244641     0.14900
N1500       N  0.63512922  0.50841107  0.91142629     0.74000
O1501       O  0.77015563  0.71153829  0.89633259    -0.39400
O1502       O  0.77748841  0.70182053  0.95961330    -0.39400
O1503       O  0.61919768  0.99575847  0.87274437    -0.40100
O1504       O  0.63464364  0.48619822  0.93844694    -0.40100
loop_ 
_geom_bond_atom_site_label_1 
_geom_bond_atom_site_label_2 
_geom_bond_distance 
_geom_bond_site_symmetry_2 
_ccdc_geom_bond_type 
C1            C2   1.551       .  S
C1            C7   1.531       .  S
C1            C5   1.537       .  S
C1          C336   1.536       .  S
C2            H9   1.078       .  S
C2            C3   1.356       .  D
C3            C4   1.528       .  S
C3          C350   1.468       .  S
C4            C8   1.547       .  S
C4            C6   1.535       .  S
C4           H10   1.109       .  S
C5           H11   1.086       .  S
C5            C6   1.374       .  D
C6          C367   1.490       .  S
C7           H12   1.086       .  S
C7            C8   1.363       .  D
C8          C322   1.485       .  S
C13          C14   1.535       .  S
C13          C19   1.553       .  S
C13          C17   1.533       .  S
C13         C283   1.541       .  S
C14          H21   1.085       .  S
C14          C15   1.363       .  D
C15          C16   1.544       .  S
C15         C311   1.478       .  S
C16          C20   1.533       .  S
C16          C18   1.549       .  S
C16          H22   1.110       .  S
C17          H23   1.083       .  S
C17          C18   1.366       .  D
C18         C294   1.487       .  S
C19          H24   1.080       .  S
C19          C20   1.367       .  D
C20         C325   1.497       .  S
C25          C26   1.547       .  S
C25          C31   1.531       .  S
C25          C29   1.537       .  S
C25         C266   1.531       .  S
C26          H33   1.083       .  S
C26          C27   1.361       .  D
C27          C28   1.554       .  S
C27         C252   1.493       .  S
C28          C32   1.535       .  S
C28          C30   1.540       .  S
C28          H34   1.111       .  S
C29          H35   1.084       .  S
C29          C30   1.365       .  D
C30         C241   1.480       .  S
C31          H36   1.086       .  S
C31          C32   1.361       .  D
C32         C227   1.475       .  S
C37          C38   1.537       .  S
C37          C43   1.551       .  S
C37          C41   1.533       .  S
C37         C196   1.537       .  S
C38          H45   1.084       .  S
C38          C39   1.364       .  D
C39          C40   1.546       .  S
C39         C213   1.479       .  S
C40          C44   1.522       .  S
C40          C42   1.551       .  S
C40          H46   1.110       .  S
C41          H47   1.083       .  S
C41          C42   1.365       .  D
C42         C185   1.491       .  S
C43          H48   1.084       .  S
C43          C44   1.367       .  D
C44         C224   1.482       .  S
Zr49         O50   2.438       .  S
Zr49         O51   2.442   1_556  S
Zr49        O428   2.420       .  S
Zr49        O807   2.409   1_455  S
Zr49        O433   2.377   1_556  S
Zr49        O810   2.384   1_456  S
Zr49        O435   2.403       .  S
Zr49        O812   2.404   1_455  S
O50         H106   0.990       .  S
O50         H114   0.990       .  S
O51          C71   1.285       .  A
O52        Zr425   2.423   1_545  S
O52          C73   1.280       .  A
O53         Zr63   2.419   1_556  S
O53          C72   1.283       .  A
O54         Zr62   2.436       .  S
O54          C73   1.289       .  A
O55        Zr801   2.415       .  S
O55          C72   1.280       .  A
O56         Zr64   2.429       .  S
O56          C71   1.282       .  A
O57         Zr62   2.387   1_554  S
O57        Zr425   2.377   1_544  S
O57        Zr440   2.375   1_545  S
O58         Zr63   2.392       .  S
O58        Zr801   2.384   1_554  S
O58        Zr816   2.374       .  S
O58          H93   0.958       .  S
O59         Zr62   2.391       .  S
O59        Zr425   2.404   1_545  S
O59        Zr831   2.400   1_455  S
O59          H96   0.970       .  S
O60         Zr63   2.392   1_556  S
O60        Zr801   2.403       .  S
O60        Zr455   2.393       .  S
Zr61         O86   2.441       .  S
Zr61         O80   2.417   1_554  S
Zr61        O464   2.449   1_545  S
Zr61        O828   2.439       .  S
Zr61         O69   2.381   1_554  S
Zr61         O70   2.380   1_544  S
Zr61        O443   2.397   1_545  S
Zr61        O820   2.400       .  S
Zr62         O81   2.436       .  S
Zr62         O74   2.435   1_556  S
Zr62         O75   2.432   1_556  S
Zr62         O68   2.400   1_556  S
Zr62        O821   2.390   1_455  S
Zr63         O65   2.436   1_554  S
Zr63         O87   2.436       .  S
Zr63         O89   2.428       .  S
Zr63         O67   2.392       .  S
Zr63        O446   2.385   1_554  S
Zr64        O842   2.435   1_455  S
Zr64       O1219   2.438       .  S
Zr64        O442   2.436       .  S
Zr64        O433   2.375       .  S
Zr64        O810   2.377   1_455  S
Zr64        O819   2.400   1_455  S
Zr64        O444   2.393       .  S
O65         H102   0.990       .  S
O66        Zr440   2.437   1_545  S
O66          H97   0.990       .  S
O66         H111   0.990       .  S
O67        Zr437   2.399       .  S
O67        Zr816   2.404       .  S
O68        Zr813   2.403   1_455  S
O68        Zr440   2.397   1_545  S
O68          H94   0.966       .  S
O69         Zr79   2.373       .  S
O69        Zr814   2.386       .  S
O70         Zr79   2.372   1_565  S
O70        Zr439   2.381   1_556  S
O70         H471   0.964       .  S
C71         C269   1.475       .  S
C72         C353   1.458       .  S
C73         C364   1.493       .  S
O74         H110   0.990       .  S
O75          C77   1.283       .  A
O76        Zr813   2.450   1_455  S
O76          C77   1.290       .  A
C77         C238   1.486       .  S
O78         Zr79   2.437       .  S
O78         H107   0.990   1_545  S
Zr79        O834   2.436       .  S
Zr79        O459   2.439   1_545  S
Zr79         O84   2.432       .  S
Zr79        O811   2.402       .  S
Zr79        O436   2.395   1_545  S
O80          C85   1.281       .  A
O81          H98   0.989       .  S
O81         H113   0.990       .  S
O82        Zr831   2.435       .  S
O82         H851   0.990       .  S
O83        Zr455   2.438       .  S
O83         H112   0.990       .  S
O83         H479   0.990       .  S
O84          C85   1.285       .  A
C85         C339   1.471       .  S
O86         H105   0.990       .  S
O86         H109   0.990       .  S
O87         H101   0.990       .  S
O87         H108   0.990       .  S
O88        Zr437   2.461       .  S
O88          C92   1.293       .  A
O89          C92   1.282       .  A
O90        Zr816   2.434       .  S
O90         H100   0.990       .  S
O91       Zr1192   2.436   1_545  S
O91         H856   0.990       .  S
C92         C255   1.502       .  S
H95         O446   0.969       .  S
H99         O834   0.990       .  S
H103        O459   0.990       .  S
H104        O843   0.990   1_655  S
Zr115       O116   2.441       .  S
Zr115       O117   2.434       .  S
Zr115       O494   2.443       .  S
Zr115       O873   2.427       .  S
Zr115       O124   2.379       .  S
Zr115       O499   2.378   1_545  S
Zr115       O501   2.406   1_545  S
Zr115       O878   2.402       .  S
O116        H172   0.990       .  S
O116        H180   0.990       .  S
O117        C137   1.287       .  A
O118       Zr491   2.437       .  S
O118        C139   1.287       .  A
O119       Zr129   2.431       .  S
O119        C138   1.283       .  A
O120       Zr128   2.423       .  S
O120        C139   1.282       .  A
O121       Zr867   2.434   1_455  S
O121        C138   1.288       .  A
O122       Zr130   2.430       .  S
O122        C137   1.282       .  A
O123       Zr128   2.392       .  S
O123       Zr491   2.378       .  S
O123       Zr506   2.374       .  S
O124       Zr130   2.375       .  S
O124       Zr881   2.386       .  S
O124        H911   0.961       .  S
O125       Zr128   2.397       .  S
O125       Zr491   2.405       .  S
O125       Zr897   2.395       .  S
O125        H162   0.955       .  S
O126       Zr129   2.395       .  S
O126       Zr867   2.405   1_455  S
O126       Zr521   2.399       .  S
Zr127       O152   2.443       .  S
Zr127       O146   2.436       .  S
Zr127       O530   2.431       .  S
Zr127       O894   2.436   1_455  S
Zr127       O509   2.401       .  S
Zr127       O886   2.400   1_455  S
Zr127       O887   2.380   1_455  S
Zr127       O512   2.380       .  S
Zr128       O147   2.435       .  S
Zr128       O140   2.434       .  S
Zr128       O141   2.430       .  S
Zr128       O134   2.396       .  S
Zr128       O135   2.385       .  S
Zr129       O131   2.435       .  S
Zr129       O153   2.436       .  S
Zr129       O155   2.445       .  S
Zr129       O133   2.392       .  S
Zr129       O136   2.382       .  S
Zr129       O876   2.392       .  S
Zr130       O157   2.434       .  S
Zr130       O908   2.437       .  S
Zr130       O508   2.436   1_545  S
Zr130       O499   2.376   1_545  S
Zr130       O885   2.401       .  S
Zr130       O510   2.398   1_545  S
O131        H168   0.990       .  S
O132       Zr506   2.435       .  S
O132        H177   0.990       .  S
O132        H539   0.990       .  S
O133       Zr503   2.402   1_545  S
O133       Zr882   2.398   1_455  S
O134       Zr879   2.403       .  S
O134       Zr506   2.400       .  S
O134        H160   0.956       .  S
O135       Zr879   2.374       .  S
O135       Zr897   2.375       .  S
O136       Zr503   2.380   1_545  S
O136       Zr521   2.373       .  S
O136        H161   0.957       .  S
C137        C280   1.492       .  S
C138        C210   1.489       .  S
C139        C182   1.487       .  S
O140        H176   0.990       .  S
O141        C143   1.282       .  A
O142       Zr879   2.434       .  S
O142        C143   1.288       .  A
C143        C297   1.493       .  S
O144      Zr1273   2.434       .  S
O144        H549   0.990       .  S
Zr145      O1272   2.438   1_455  S
Zr145       O900   2.435   1_455  S
Zr145       O525   2.440       .  S
Zr145       O150   2.426       .  S
Zr145       O877   2.399   1_455  S
Zr145       O502   2.399       .  S
Zr145       O887   2.376   1_455  S
Zr145       O512   2.372       .  S
O146        C151   1.287       .  A
O147        H164   0.990       .  S
O147        H179   0.990       .  S
O148       Zr897   2.437       .  S
O148        H165   0.990       .  S
O149       Zr521   2.437       .  S
O149        H169   0.990       .  S
O149        H178   0.990       .  S
O150        C151   1.282       .  A
C151        C199   1.488       .  S
O152        H547   0.990       .  S
O152        H927   0.990       .  S
O153        H167   0.990       .  S
O153        H174   0.990       .  S
O154       Zr503   2.434   1_545  S
O154        C158   1.284       .  A
O155        C158   1.288       .  A
O156       Zr882   2.435   1_455  S
O156        H918   0.990       .  S
O157        H546   0.990   1_545  S
C158        C308   1.479       .  S
H159        O876   0.952       .  S
H163        O508   0.990       .  S
H166        O908   0.990       .  S
H170        O533   0.990       .  S
H171        O528   0.990       .  S
H173        O520   0.990       .  S
H175        O904   0.990       .  S
C181        C182   1.403       .  A
C181        C186   1.400       .  A
C181        H188   1.084       .  S
C182        C183   1.416       .  A
C183        C184   1.390       .  A
C183        N190   1.426       .  S
C184        C185   1.396       .  A
C184        H189   1.078       .  S
C185        C186   1.420       .  A
C186        N187   1.427       .  S
N187        O192   1.262       .  A
N187        O567   1.262       .  A
N190        O193   1.262       .  A
N190        O194   1.262       .  A
O191        N563   1.262   1_545  A
C195        C196   1.404       .  A
C195        C200   1.392       .  A
C195        H202   1.078       .  S
C196        C197   1.425       .  A
C197        C198   1.402       .  A
C197        N204   1.427       .  S
C198        C199   1.401       .  A
C198        H203   1.084       .  S
C199        C200   1.414       .  A
C200        N201   1.426       .  S
N201        O206   1.262       .  A
N201        O205   1.262       .  A
N204        O207   1.262       .  A
N204        O208   1.262       .  A
C209        C210   1.404       .  A
C209        C214   1.399       .  A
C209        H216   1.084       .  S
C210        C211   1.419       .  A
C211        C212   1.396       .  A
C211        N218   1.426       .  S
C212        C213   1.393       .  A
C212        H217   1.081       .  S
C213        C214   1.412       .  A
C214        N215   1.426       .  S
N215        O220   1.262       .  A
N215        O219   1.262       .  A
N218        O221   1.262       .  A
N218        O974   1.262       .  A
O222        N970   1.262       .  A
C223        C224   1.395       .  A
C223        C228   1.389       .  A
C223        H230   1.085       .  S
C224        C225   1.415       .  A
C225        C226   1.402       .  A
C225        N232   1.426       .  S
C226        C227   1.398       .  A
C226        H231   1.085       .  S
C227        C228   1.411       .  A
C228        N229   1.425       .  S
N229        O234   1.262       .  A
N229        O233   1.261       .  A
N232        O235   1.262       .  A
N232        O236   1.262       .  A
C237        C238   1.401       .  A
C237        C242   1.399       .  A
C237        H996   1.084       .  S
C238        C239   1.418       .  A
C239        C240   1.398       .  A
C239        N246   1.424   1_554  S
C240        C241   1.394       .  A
C240        H245   1.085       .  S
C241        C242   1.412       .  A
C242        N243   1.424       .  S
N243        O248   1.262       .  A
N243        O999   1.261       .  A
H244        C989   1.084       .  S
N246        O249   1.262       .  A
N246        O250   1.262       .  A
O247        N995   1.262       .  A
C251        C252   1.393       .  A
C251        C256   1.399       .  A
C251        H258   1.084       .  S
C252        C253   1.420       .  A
C253        C254   1.402       .  A
C253        N260   1.427       .  S
C254        C255   1.404       .  A
C254        H259   1.084       .  S
C255        C256   1.424       .  A
C256        N257   1.425       .  S
N257        O262   1.262       .  A
N257        O261   1.262       .  A
N260        O263   1.262       .  A
N260        O264   1.262       .  A
C265        C266   1.403       .  A
C265        C270   1.390       .  A
C265        H272   1.078       .  S
C266        C267   1.421       .  A
C267        C268   1.407       .  A
C267        N274   1.431       .  S
C268        C269   1.404       .  A
C268        H273   1.084       .  S
C269        C270   1.407       .  A
C270        N647   1.426       .  S
N271        C646   1.426       .  S
N271        O276   1.261   1_565  A
N271        O275   1.261   1_565  A
N274        O277   1.261       .  A
N274        O278   1.262       .  A
C279        C280   1.402       .  A
C279        C284   1.399       .  A
C279        H286   1.084       .  S
C280        C281   1.415       .  A
C281        C282   1.396       .  A
C281        N288   1.427       .  S
C282        C283   1.406       .  A
C282        H287   1.074       .  S
C283        C284   1.423       .  A
C284        N285   1.427       .  S
N285        O290   1.262       .  A
N285        O289   1.262       .  A
N288        O291   1.262       .  A
N288        O292   1.262       .  A
C293        C294   1.397       .  A
C293        C298   1.397       .  A
C293        H300   1.083       .  S
C294        C295   1.416       .  A
C295        C296   1.395       .  A
C295        N302   1.427       .  S
C296        C297   1.404       .  A
C296        H301   1.084       .  S
C297        C298   1.420       .  A
C298        N299   1.426       .  S
N299        O304   1.262       .  A
N299        O303   1.262       .  A
N302        O305   1.262       .  A
N302        O306   1.262       .  A
C307        C308   1.400       .  A
C307        C312   1.399       .  A
C307        H314   1.084       .  S
C308        C309   1.415       .  A
C309        C310   1.399       .  A
C309        N316   1.426       .  S
C310        C311   1.393       .  A
C310        H315   1.076       .  S
C311        C312   1.409       .  A
C312        N313   1.424       .  S
N313        O318   1.261       .  A
N313        O317   1.262       .  A
N316        O319   1.262       .  A
N316        O320   1.262       .  A
C321        C322   1.396       .  A
C321        C326   1.405       .  A
C321        H328   1.084       .  S
C322        C323   1.413       .  A
C323        C324   1.396       .  A
C323        N330   1.426       .  S
C324        C325   1.401       .  A
C324        H329   1.085       .  S
C325        C326   1.418       .  A
C326        N327   1.422       .  S
N327        O332   1.262       .  A
N327        O331   1.261       .  A
N330        O333   1.262       .  A
N330        O334   1.262       .  A
C335        C336   1.407       .  A
C335        C340   1.389       .  A
C335        H342   1.073       .  S
C336        C337   1.424       .  A
C337        C338   1.399       .  A
C337        N344   1.427       .  S
C338        C339   1.397       .  A
C338        H343   1.085       .  S
C339        C340   1.407       .  A
C340        N341   1.427       .  S
N341       O1098   1.262   1_556  A
N341        O345   1.262       .  A
N344        O347   1.262       .  A
N344        O348   1.262       .  A
O346       N1093   1.262       .  A
C349        C350   1.395       .  A
C349        C354   1.393       .  A
C349        H356   1.085       .  S
C350        C351   1.416       .  A
C351        C352   1.391       .  A
C351        N358   1.429       .  S
C352        C353   1.394       .  A
C352        H357   1.085   1_556  S
C353        C354   1.410       .  A
C354        N355   1.425       .  S
N355        O360   1.262       .  A
N355        O359   1.262       .  A
N358        O361   1.262   1_556  A
N358        O362   1.261   1_556  A
C363        C364   1.402       .  A
C363        C368   1.396       .  A
C363        H370   1.084       .  S
C364        C365   1.421       .  A
C365        C366   1.398       .  A
C365        N372   1.427       .  S
C366        C367   1.397       .  A
C366        H371   1.084       .  S
C367        C368   1.419       .  A
C368        N369   1.427       .  S
N369        O374   1.261       .  A
N369        O373   1.262       .  A
N372        O751   1.262   1_545  A
N372        O376   1.261   1_545  A
O375        N748   1.262       .  A
C377        C378   1.557       .  S
C377        C383   1.530       .  S
C377        C381   1.533       .  S
C377        C712   1.537       .  S
C378        H385   1.077       .  S
C378        C379   1.360       .  D
C379        C380   1.533       .  S
C379        C726   1.475       .  S
C380        C384   1.550       .  S
C380        C382   1.537       .  S
C380        H386   1.109       .  S
C381        H387   1.086       .  S
C381        C382   1.372       .  D
C382        C743   1.491       .  S
C383        H388   1.085       .  S
C383        C384   1.361       .  D
C384        C698   1.492       .  S
C389        C390   1.532       .  S
C389        C395   1.556       .  S
C389        C393   1.536       .  S
C389        C659   1.546       .  S
C390        H397   1.086       .  S
C390        C391   1.362       .  D
C391        C392   1.542       .  S
C391        C687   1.474       .  S
C392        C396   1.538       .  S
C392        C394   1.550       .  S
C392        H398   1.110       .  S
C393        H399   1.083       .  S
C393        C394   1.369       .  D
C394        C670   1.488       .  S
C395        H400   1.078       .  S
C395        C396   1.367       .  D
C396        C701   1.506       .  S
C401        C402   1.545       .  S
C401        C407   1.531       .  S
C401        C405   1.540       .  S
C401        C642   1.532       .  S
C402        H409   1.082       .  S
C402        C403   1.359       .  D
C403        C404   1.554       .  S
C403        C628   1.492       .  S
C404        C408   1.534       .  S
C404        C406   1.539       .  S
C404        H410   1.110       .  S
C405        H411   1.084       .  S
C405        C406   1.367       .  D
C406        C617   1.478       .  S
C407        H412   1.086       .  S
C407        C408   1.359       .  D
C408        C603   1.478       .  S
C413        C414   1.537       .  S
C413        C419   1.552       .  S
C413        C417   1.536       .  S
C413        C572   1.540       .  S
C414        H421   1.085       .  S
C414        C415   1.363       .  D
C415        C416   1.553       .  S
C415        C589   1.488       .  S
C416        C420   1.525       .  S
C416        C418   1.552       .  S
C416        H422   1.109       .  S
C417        H423   1.083       .  S
C417        C418   1.367       .  D
C418        C561   1.495       .  S
C419        H424   1.082       .  S
C419        C420   1.366       .  D
C420        C600   1.484       .  S
Zr425       O426   2.438       .  S
Zr425       O427   2.434   1_556  S
Zr425      O1183   2.411   1_455  S
Zr425      O1186   2.387   1_456  S
Zr425      O1188   2.400   1_455  S
O426        H482   0.990       .  S
O426        H490   0.990       .  S
O427        C447   1.283       .  A
O428        C449   1.279       .  A
O429       Zr439   2.422   1_556  S
O429        C448   1.283       .  A
O430       Zr438   2.441       .  S
O430        C449   1.289       .  A
O431      Zr1177   2.412       .  S
O431        C448   1.280       .  A
O432       Zr440   2.441       .  S
O432        C447   1.285       .  A
O433       Zr438   2.382   1_554  S
O434      Zr1177   2.382   1_554  S
O434       Zr439   2.392       .  S
O434      Zr1192   2.371       .  S
O434        H469   0.962       .  S
O435       Zr438   2.386       .  S
O435      Zr1207   2.403   1_455  S
O435        H472   0.966       .  S
O436      Zr1177   2.402       .  S
O436       Zr439   2.388   1_556  S
Zr437       O462   2.442       .  S
Zr437       O456   2.427   1_554  S
Zr437      O1204   2.442       .  S
Zr437      O1196   2.409       .  S
Zr437       O445   2.384   1_554  S
Zr437       O446   2.380   1_554  S
Zr438       O457   2.435       .  S
Zr438       O450   2.434   1_556  S
Zr438       O451   2.419   1_556  S
Zr438       O444   2.405   1_556  S
Zr438      O1197   2.390   1_455  S
Zr439       O441   2.435   1_554  S
Zr439       O463   2.436       .  S
Zr439       O465   2.422       .  S
Zr439       O443   2.396       .  S
Zr440      O1218   2.435   1_455  S
Zr440       O843   2.437   1_565  S
Zr440      O1186   2.378   1_455  S
Zr440      O1195   2.403   1_455  S
O441        H478   0.990       .  S
O442        H473   0.990       .  S
O442        H487   0.990       .  S
O443      Zr1192   2.399       .  S
O444      Zr1189   2.405   1_455  S
O444        H470   0.960       .  S
O445      Zr1190   2.387       .  S
O445       Zr455   2.373       .  S
O446       Zr455   2.376       .  S
C447        C645   1.476       .  S
C448        C729   1.456       .  S
C449        C740   1.493       .  S
O450        H486   0.990       .  S
O451        C453   1.281       .  A
O452      Zr1189   2.452   1_455  S
O452        C453   1.291       .  A
C453        C614   1.483       .  S
O454       Zr455   2.437       .  S
O454        H483   0.990       .  S
Zr455      O1210   2.436       .  S
Zr455       O460   2.432       .  S
Zr455      O1187   2.401       .  S
O456        C461   1.283       .  A
O457        H474   0.990       .  S
O457        H489   0.990       .  S
O458      Zr1207   2.435   1_455  S
O458       H1227   0.990   1_455  S
O459        H488   0.990       .  S
O460        C461   1.285       .  A
C461        C715   1.476       .  S
O462        H481   0.990       .  S
O462        H485   0.990       .  S
O463        H477   0.990       .  S
O463        H484   0.990       .  S
O464        C468   1.291       .  A
O465        C468   1.281       .  A
O466      Zr1192   2.435       .  S
O466        H476   0.990       .  S
O467       Zr816   2.436       .  S
O467       H1232   0.990       .  S
C468        C631   1.492       .  S
H475       O1210   0.990       .  S
H480       O1219   0.990   1_655  S
Zr491       O492   2.440       .  S
Zr491       O493   2.442       .  S
Zr491      O1249   2.428       .  S
Zr491       O500   2.379       .  S
Zr491      O1254   2.404       .  S
O492        H548   0.990       .  S
O492        H556   0.990       .  S
O493        C513   1.288       .  A
O494        C515   1.288   1_545  A
O495       Zr505   2.432       .  S
O495        C514   1.284       .  A
O496       Zr504   2.423       .  S
O496        C515   1.281       .  A
O497      Zr1243   2.448   1_455  S
O497        C514   1.291       .  A
O498       Zr506   2.430       .  S
O498        C513   1.282       .  A
O499       Zr504   2.395       .  S
O500      Zr1257   2.394       .  S
O500       Zr506   2.370       .  S
O500       H1287   0.957       .  S
O501       Zr504   2.399       .  S
O501      Zr1273   2.399   1_565  S
O501        H538   0.951       .  S
O502      Zr1243   2.407   1_455  S
O502       Zr505   2.397       .  S
Zr503       O528   2.444       .  S
Zr503       O522   2.441       .  S
Zr503      O1270   2.432   1_455  S
Zr503      O1262   2.403   1_455  S
Zr503      O1263   2.378   1_455  S
Zr504       O523   2.436       .  S
Zr504       O516   2.434       .  S
Zr504       O517   2.430       .  S
Zr504       O510   2.398       .  S
Zr504       O511   2.389       .  S
Zr505       O507   2.435       .  S
Zr505       O529   2.435       .  S
Zr505       O531   2.442       .  S
Zr505      O1252   2.389       .  S
Zr505       O509   2.393       .  S
Zr505       O512   2.384       .  S
Zr506      O1284   2.436       .  S
Zr506       O533   2.435       .  S
Zr506      O1261   2.399       .  S
O507        H544   0.990       .  S
O508        H553   0.990       .  S
O509      Zr1258   2.395   1_455  S
O510      Zr1255   2.404       .  S
O510        H536   0.955       .  S
O511      Zr1255   2.375       .  S
O511      Zr1273   2.373   1_565  S
O512        H537   0.959       .  S
C513        C656   1.498       .  S
C514        C586   1.497       .  S
C515        C558   1.491       .  S
O516        H552   0.990       .  S
O517        C519   1.282       .  A
O518      Zr1255   2.430       .  S
O518        C519   1.287       .  A
C519        C673   1.491       .  S
O520       Zr897   2.438       .  S
Zr521       O896   2.435   1_455  S
Zr521      O1276   2.436   1_445  S
Zr521       O526   2.428   1_545  S
Zr521      O1253   2.397   1_445  S
Zr521      O1263   2.375   1_445  S
O522        C527   1.288       .  A
O523        H540   0.990       .  S
O523        H555   0.990       .  S
O524      Zr1273   2.435   1_565  S
O524        H541   0.990       .  S
O525        H545   0.990       .  S
O525        H554   0.990       .  S
O526        C527   1.282       .  A
C527        C575   1.494       .  S
O528       H1303   0.990       .  S
O529        H543   0.990       .  S
O529        H550   0.990       .  S
O530        C534   1.284       .  A
O531        C534   1.287       .  A
O532      Zr1258   2.435   1_455  S
O532       H1294   0.990       .  S
C534        C684   1.476       .  S
H535       O1252   0.950       .  S
H542       O1284   0.990       .  S
H551       O1280   0.990       .  S
C557        C558   1.404       .  A
C557        C562   1.402       .  A
C557        H564   1.084   1_565  S
C558        C559   1.417       .  A
C559        C560   1.390       .  A
C559        N566   1.426       .  S
C560        C561   1.394       .  A
C560        H565   1.074       .  S
C561        C562   1.421       .  A
C562        N563   1.427       .  S
N563        O568   1.262   1_565  A
N566        O569   1.262       .  A
N566        O570   1.262       .  A
C571        C572   1.404       .  A
C571        C576   1.394       .  A
C571        H578   1.076       .  S
C572        C573   1.424       .  A
C573        C574   1.402       .  A
C573        N580   1.427       .  S
C574        C575   1.402       .  A
C574        H579   1.084       .  S
C575        C576   1.416       .  A
C576        N577   1.427       .  S
N577        O582   1.262       .  A
N577        O581   1.262   1_565  A
N580        O583   1.262       .  A
N580        O584   1.262       .  A
C585        C586   1.406       .  A
C585        C590   1.401       .  A
C585        H592   1.084       .  S
C586        C587   1.421       .  A
C587        C588   1.397       .  A
C587        N594   1.426       .  S
C588        C589   1.392       .  A
C588        H593   1.077       .  S
C589        C590   1.414       .  A
C590        N591   1.425       .  S
N591        O596   1.262   1_455  A
N591        O595   1.262       .  A
N594        O597   1.262       .  A
N594       O1350   1.262       .  A
O598       N1346   1.262       .  A
C599        C600   1.395       .  A
C599        C604   1.390       .  A
C599        H606   1.085       .  S
C600        C601   1.416       .  A
C601        C602   1.403       .  A
C601        N608   1.425       .  S
C602        C603   1.399       .  A
C602        H607   1.085       .  S
C603        C604   1.412       .  A
C604        N605   1.425       .  S
N605        O610   1.262       .  A
N605        O609   1.261       .  A
N608        O611   1.262       .  A
N608        O612   1.262       .  A
C613        C614   1.399       .  A
C613        C618   1.396       .  A
C613       H1372   1.084       .  S
C614        C615   1.419       .  A
C615        C616   1.400       .  A
C615        N622   1.426       .  S
C616        C617   1.395       .  A
C616        H621   1.085       .  S
C617        C618   1.410       .  A
C618        N619   1.423       .  S
N619        O624   1.262       .  A
N619       O1375   1.261       .  A
H620       C1365   1.084       .  S
N622        O625   1.262   1_554  A
N622        O626   1.262       .  A
O623       N1371   1.261       .  A
C627        C628   1.395       .  A
C627        C632   1.396       .  A
C627        H634   1.083       .  S
C628        C629   1.421       .  A
C629        C630   1.399       .  A
C629        N636   1.428       .  S
C630        C631   1.402       .  A
C630        H635   1.084       .  S
C631        C632   1.421       .  A
C632        N633   1.425       .  S
N633        O638   1.262       .  A
N633        O637   1.262       .  A
N636        O639   1.262       .  A
N636        O640   1.262       .  A
C641        C642   1.404       .  A
C641        C646   1.388       .  A
C641        H648   1.077       .  S
C642        C643   1.421       .  A
C643        C644   1.410       .  A
C643        N650   1.431       .  S
C644        C645   1.406       .  A
C644        H649   1.084       .  S
C645        C646   1.406       .  A
N647        O652   1.261       .  A
N647        O651   1.262       .  A
N650        O653   1.261       .  A
N650        O654   1.261       .  A
C655        C656   1.403       .  A
C655        C660   1.405       .  A
C655        H662   1.084       .  S
C656        C657   1.416       .  A
C657        C658   1.393       .  A
C657        N664   1.426       .  S
C658        C659   1.404       .  A
C658        H663   1.071       .  S
C659        C660   1.426       .  A
C660        N661   1.427       .  S
N661        O666   1.262       .  A
N661        O665   1.262       .  A
N664        O667   1.262       .  A
N664        O668   1.262       .  A
C669        C670   1.400       .  A
C669        C674   1.399       .  A
C669        H676   1.083       .  S
C670        C671   1.414       .  A
C671        C672   1.394       .  A
C671        N678   1.426       .  S
C672        C673   1.403       .  A
C672        H677   1.084       .  S
C673        C674   1.419       .  A
C674        N675   1.426       .  S
N675        O680   1.262       .  A
N675        O679   1.262       .  A
N678        O681   1.262       .  A
N678        O682   1.262       .  A
C683        C684   1.399       .  A
C683        C688   1.399       .  A
C683        H690   1.084       .  S
C684        C685   1.413       .  A
C685        C686   1.396       .  A
C685        N692   1.425       .  S
C686        C687   1.391       .  A
C686        H691   1.076       .  S
C687        C688   1.411       .  A
C688        N689   1.425       .  S
N689        O694   1.261       .  A
N689        O693   1.261       .  A
N692        O695   1.262       .  A
N692        O696   1.262       .  A
C697        C698   1.397       .  A
C697        C702   1.408       .  A
C697        H704   1.084       .  S
C698        C699   1.416       .  A
C699        C700   1.398       .  A
C699        N706   1.427       .  S
C700        C701   1.402       .  A
C700        H705   1.084       .  S
C701        C702   1.420       .  A
C702        N703   1.422       .  S
N703        O708   1.262       .  A
N703        O707   1.262       .  A
N706        O709   1.262       .  A
N706        O710   1.262       .  A
C711        C712   1.405       .  A
C711        C716   1.389       .  A
C711        H718   1.072       .  S
C712        C713   1.427       .  A
C713        C714   1.402       .  A
C713        N720   1.428       .  S
C714        C715   1.398       .  A
C714        H719   1.084       .  S
C715        C716   1.407       .  A
C716        N717   1.426       .  S
N717       O1474   1.262   1_556  A
N717        O721   1.262       .  A
N720        O723   1.262       .  A
N720        O724   1.262       .  A
O722       N1469   1.262       .  A
C725        C726   1.397       .  A
C725        C730   1.392       .  A
C725        H732   1.084       .  S
C726        C727   1.418       .  A
C727        C728   1.392       .  A
C727        N734   1.427       .  S
C728        C729   1.393       .  A
C728        H733   1.085   1_556  S
C729        C730   1.408       .  A
C730        N731   1.425       .  S
N731        O736   1.262       .  A
N731        O735   1.262       .  A
N734        O737   1.262   1_556  A
N734        O738   1.262   1_556  A
C739        C740   1.403       .  A
C739        C744   1.397       .  A
C739        H746   1.084       .  S
C740        C741   1.422       .  A
C741        C742   1.396       .  A
C741        N748   1.427       .  S
C742        C743   1.397       .  A
C742        H747   1.084       .  S
C743        C744   1.419       .  A
C744        N745   1.427       .  S
N745        O750   1.262       .  A
N745        O749   1.262       .  A
N748        O752   1.261       .  A
C753        C754   1.553       .  S
C753        C759   1.530       .  S
C753        C757   1.536       .  S
C753       C1088   1.538       .  S
C754        H761   1.080       .  S
C754        C755   1.359       .  D
C755        C756   1.530       .  S
C755       C1102   1.470       .  S
C756        C760   1.548       .  S
C756        C758   1.535       .  S
C756        H762   1.109       .  S
C757        H763   1.086       .  S
C757        C758   1.374       .  D
C758       C1119   1.491       .  S
C759        H764   1.085       .  S
C759        C760   1.362       .  D
C760       C1074   1.486       .  S
C765        C766   1.531       .  S
C765        C771   1.555       .  S
C765        C769   1.537       .  S
C765       C1035   1.540       .  S
C766        H773   1.085       .  S
C766        C767   1.360       .  D
C767        C768   1.539       .  S
C767       C1063   1.467       .  S
C768        C772   1.531       .  S
C768        C770   1.554       .  S
C768        H774   1.108       .  S
C769        H775   1.082       .  S
C769        C770   1.369       .  D
C770       C1046   1.498       .  S
C771        H776   1.081       .  S
C771        C772   1.366       .  D
C772       C1077   1.496       .  S
C777        C778   1.547       .  S
C777        C783   1.533       .  S
C777        C781   1.538       .  S
C777       C1018   1.534       .  S
C778        H785   1.082       .  S
C778        C779   1.362       .  D
C779        C780   1.556       .  S
C779       C1004   1.499       .  S
C780        C784   1.537       .  S
C780        C782   1.537       .  S
C780        H786   1.111       .  S
C781        H787   1.083       .  S
C781        C782   1.364       .  D
C782        C993   1.473       .  S
C783        H788   1.086       .  S
C783        C784   1.361       .  D
C784        C979   1.480       .  S
C789        C790   1.536       .  S
C789        C795   1.553       .  S
C789        C793   1.541       .  S
C789        C948   1.544       .  S
C790        H797   1.087       .  S
C790        C791   1.362       .  D
C791        C792   1.539       .  S
C791        C965   1.476       .  S
C792        C796   1.522       .  S
C792        C794   1.545       .  S
C792        H798   1.111       .  S
C793        H799   1.083       .  S
C793        C794   1.369       .  D
C794        C937   1.482       .  S
C795        H800   1.082       .  S
C795        C796   1.367       .  D
C796        C976   1.482       .  S
Zr801       O802   2.438       .  S
Zr801       O803   2.443   1_556  S
Zr801      O1180   2.425       .  S
Zr801      O1185   2.378   1_556  S
Zr801      O1187   2.407       .  S
O802        H858   0.990       .  S
O802        H866   0.990       .  S
O803        C823   1.285       .  A
O804      Zr1177   2.419   1_545  S
O804        C825   1.279       .  A
O805       Zr815   2.431   1_556  S
O805        C824   1.285       .  A
O806       Zr814   2.440       .  S
O806        C825   1.289       .  A
O807        C824   1.279       .  A
O808       Zr816   2.440       .  S
O808        C823   1.284       .  A
O809      Zr1177   2.378   1_544  S
O809       Zr814   2.390   1_554  S
O809      Zr1192   2.377   1_545  S
O810       Zr815   2.386       .  S
O810        H845   0.964       .  S
O811      Zr1177   2.406   1_545  S
O811       Zr814   2.393       .  S
O811        H848   0.978       .  S
O812       Zr815   2.391   1_556  S
O812      Zr1207   2.401       .  S
Zr813       O838   2.441       .  S
Zr813       O832   2.420   1_554  S
Zr813      O1216   2.454   1_545  S
Zr813      O1195   2.403   1_545  S
Zr813       O821   2.384   1_554  S
Zr813       O822   2.383   1_544  S
Zr814       O833   2.436       .  S
Zr814       O826   2.434   1_556  S
Zr814       O827   2.426   1_556  S
Zr814       O820   2.403   1_556  S
Zr815       O817   2.435   1_554  S
Zr815       O839   2.436       .  S
Zr815       O841   2.431       .  S
Zr815       O819   2.399       .  S
Zr815      O1198   2.388   1_554  S
Zr816      O1194   2.436       .  S
Zr816      O1185   2.373       .  S
Zr816      O1196   2.396       .  S
O817        H854   0.990       .  S
O818      Zr1192   2.437   1_545  S
O818        H849   0.990       .  S
O818        H863   0.990       .  S
O819      Zr1189   2.402       .  S
O820      Zr1192   2.401   1_545  S
O820        H846   0.964       .  S
O821       Zr831   2.374       .  S
O822      Zr1191   2.389   1_556  S
O822       Zr831   2.372   1_565  S
O822       H1223   0.958       .  S
C823       C1021   1.481       .  S
C824       C1105   1.462       .  S
C825       C1116   1.492       .  S
O826        H862   0.990       .  S
O827        C829   1.282       .  A
O828        C829   1.289       .  A
C829        C990   1.483       .  S
O830       Zr831   2.436   1_565  S
O830        H859   0.990       .  S
Zr831      O1211   2.438   1_545  S
Zr831       O836   2.438       .  S
Zr831      O1188   2.396   1_545  S
O832        C837   1.281       .  A
O833        H850   0.990       .  S
O833        H865   0.990       .  S
O835      Zr1207   2.437       .  S
O835       H1231   0.990       .  S
O835        H864   0.990       .  S
O836        C837   1.287       .  A
C837       C1091   1.480       .  S
O838        H857   0.990       .  S
O838        H861   0.990       .  S
O839        H853   0.990       .  S
O839        H860   0.991       .  S
O840      Zr1189   2.456       .  S
O840        C844   1.292       .  A
O841        C844   1.283       .  A
O842        H852   0.990       .  S
C844       C1007   1.500       .  S
H847       O1198   0.962       .  S
H855       O1211   0.990       .  S
Zr867       O868   2.440       .  S
Zr867       O869   2.447       .  S
Zr867      O1246   2.444       .  S
Zr867      O1251   2.380   1_545  S
Zr867       O876   2.379   1_655  S
Zr867      O1253   2.407   1_545  S
O868        H924   0.990       .  S
O868        H932   0.990       .  S
O869        C889   1.289       .  A
O870      Zr1243   2.454       .  S
O870        C891   1.291       .  A
O871       Zr881   2.439       .  S
O871        C890   1.284       .  A
O872       Zr880   2.430       .  S
O872        C891   1.282       .  A
O873        C890   1.286       .  A
O874       Zr882   2.420       .  S
O874        C889   1.280       .  A
O875      Zr1243   2.383       .  S
O875       Zr880   2.392       .  S
O875      Zr1258   2.377       .  S
O876       Zr882   2.372   1_455  S
O877      Zr1243   2.410       .  S
O877       Zr880   2.402       .  S
O877        H914   0.947       .  S
O878       Zr881   2.395       .  S
O878      Zr1273   2.398       .  S
Zr879       O904   2.443       .  S
Zr879       O898   2.441       .  S
Zr879      O1282   2.427       .  S
Zr879      O1261   2.402       .  S
Zr879      O1264   2.384       .  S
Zr880       O899   2.438       .  S
Zr880       O892   2.434       .  S
Zr880       O893   2.437       .  S
Zr880       O886   2.394       .  S
Zr880       O887   2.391       .  S
Zr881       O883   2.435       .  S
Zr881       O905   2.436       .  S
Zr881       O907   2.429       .  S
Zr881       O885   2.392       .  S
Zr881       O888   2.392       .  S
Zr882       O909   2.435       .  S
Zr882      O1260   2.438   1_545  S
Zr882      O1251   2.377   1_545  S
Zr882      O1262   2.397   1_545  S
O883        H920   0.990       .  S
O884      Zr1258   2.437       .  S
O884       H1291   0.990       .  S
O884        H929   0.990       .  S
O885      Zr1255   2.405   1_545  S
O886      Zr1258   2.393       .  S
O886        H912   0.967       .  S
O888      Zr1255   2.382   1_545  S
O888      Zr1273   2.373       .  S
O888        H913   0.966       .  S
C889       C1032   1.493       .  S
C890        C962   1.483       .  S
C891        C934   1.497       .  S
O892        H928   0.990       .  S
O893        C895   1.284       .  A
O894        C895   1.288       .  A
C895       C1049   1.492       .  S
O896       H1301   0.990       .  S
Zr897      O1277   2.438       .  S
Zr897       O902   2.429       .  S
Zr897      O1254   2.399       .  S
Zr897      O1264   2.375       .  S
O898        C903   1.288       .  A
O899        H916   0.990       .  S
O899        H931   0.990       .  S
O900        H917   0.989       .  S
O901      Zr1273   2.438       .  S
O901        H921   0.990       .  S
O901        H930   0.990       .  S
O902        C903   1.283       .  A
C903        C951   1.492       .  S
O904       H1299   0.990       .  S
O905        H919   0.990       .  S
O905        H926   0.990       .  S
O906      Zr1255   2.427   1_545  S
O906        C910   1.283       .  A
O907        C910   1.286       .  A
O909       H1298   0.990   1_655  S
C910       C1060   1.476       .  S
H915       O1260   0.990       .  S
H922       O1285   0.990   1_455  S
H923       O1280   0.990       .  S
H925       O1272   0.990       .  S
C933        C934   1.406       .  A
C933        C938   1.401       .  A
C933        H940   1.083       .  S
C934        C935   1.422       .  A
C935        C936   1.394       .  A
C935        N942   1.426       .  S
C936        C937   1.393       .  A
C936        H941   1.082       .  S
C937        C938   1.414       .  A
C938        N939   1.427       .  S
N939        O944   1.262       .  A
N939       O1319   1.261       .  A
N942        O945   1.262       .  A
N942        O946   1.262       .  A
O943       N1315   1.262   1_545  A
C947        C948   1.406       .  A
C947        C952   1.395       .  A
C947        H954   1.076       .  S
C948        C949   1.425       .  A
C949        C950   1.403       .  A
C949        N956   1.427       .  S
C950        C951   1.401       .  A
C950        H955   1.084       .  S
C951        C952   1.414       .  A
C952        N953   1.427       .  S
N953        O958   1.262       .  A
N953        O957   1.262       .  A
N956        O959   1.262       .  A
N956        O960   1.262       .  A
C961        C962   1.402       .  A
C961        C966   1.396       .  A
C961        H968   1.084       .  S
C962        C963   1.417       .  A
C963        C964   1.400       .  A
C963        N970   1.425       .  S
C964        C965   1.396       .  A
C964        H969   1.084       .  S
C965        C966   1.410       .  A
C966        N967   1.426       .  S
N967        O972   1.262       .  A
N967        O971   1.262       .  A
N970        O973   1.262       .  A
C975        C976   1.395       .  A
C975        C980   1.392       .  A
C975        H982   1.085       .  S
C976        C977   1.414       .  A
C977        C978   1.401       .  A
C977        N984   1.424       .  S
C978        C979   1.397       .  A
C978        H983   1.084       .  S
C979        C980   1.414       .  A
C980        N981   1.425       .  S
N981        O986   1.262       .  A
N981        O985   1.261       .  A
N984        O987   1.262       .  A
N984        O988   1.260       .  A
C989        C990   1.401       .  A
C989        C994   1.396       .  A
C990        C991   1.419       .  A
C991        C992   1.397       .  A
C991        N998   1.425       .  S
C992        C993   1.392       .  A
C992        H997   1.084       .  S
C993        C994   1.411       .  A
C994        N995   1.424       .  S
N995       O1000   1.262       .  A
N998       O1001   1.262   1_554  A
N998       O1002   1.262       .  A
C1003      C1004   1.397       .  A
C1003      C1008   1.402       .  A
C1003      H1010   1.082       .  S
C1004      C1005   1.421       .  A
C1005      C1006   1.400       .  A
C1005      N1012   1.427       .  S
C1006      C1007   1.403       .  A
C1006      H1011   1.084       .  S
C1007      C1008   1.422       .  A
C1008      N1009   1.426       .  S
N1009      O1014   1.262       .  A
N1009      O1013   1.262       .  A
N1012      O1015   1.262       .  A
N1012      O1016   1.262       .  A
C1017      C1018   1.404       .  A
C1017      C1022   1.392       .  A
C1017      H1024   1.078       .  S
C1018      C1019   1.421       .  A
C1019      C1020   1.409       .  A
C1019      N1026   1.431       .  S
C1020      C1021   1.405       .  A
C1020      H1025   1.084       .  S
C1021      C1022   1.409       .  A
C1022      N1399   1.426       .  S
N1023      C1398   1.426       .  S
N1023      O1028   1.262   1_565  A
N1023      O1027   1.262   1_565  A
N1026      O1029   1.261       .  A
N1026      O1030   1.262       .  A
C1031      C1032   1.401       .  A
C1031      C1036   1.402       .  A
C1031      H1038   1.084       .  S
C1032      C1033   1.417       .  A
C1033      C1034   1.394       .  A
C1033      N1040   1.426       .  S
C1034      C1035   1.404       .  A
C1034      H1039   1.075       .  S
C1035      C1036   1.425       .  A
C1036      N1037   1.427       .  S
N1037      O1042   1.262       .  A
N1037      O1041   1.262       .  A
N1040      O1043   1.262       .  A
N1040      O1044   1.262       .  A
C1045      C1046   1.400       .  A
C1045      C1050   1.396       .  A
C1045      H1052   1.080       .  S
C1046      C1047   1.421       .  A
C1047      C1048   1.399       .  A
C1047      N1054   1.427       .  S
C1048      C1049   1.403       .  A
C1048      H1053   1.084       .  S
C1049      C1050   1.416       .  A
C1050      N1051   1.426       .  S
N1051      O1056   1.262       .  A
N1051      O1055   1.262       .  A
N1054      O1057   1.262       .  A
N1054      O1058   1.262       .  A
C1059      C1060   1.400       .  A
C1059      C1064   1.392       .  A
C1059      H1066   1.084       .  S
C1060      C1061   1.416       .  A
C1061      C1062   1.398       .  A
C1061      N1068   1.426       .  S
C1062      C1063   1.394       .  A
C1062      H1067   1.080       .  S
C1063      C1064   1.406       .  A
C1064      N1065   1.426       .  S
N1065      O1070   1.261       .  A
N1065      O1069   1.262       .  A
N1068      O1071   1.262       .  A
N1068      O1072   1.262       .  A
C1073      C1074   1.397       .  A
C1073      C1078   1.406       .  A
C1073      H1080   1.084       .  S
C1074      C1075   1.414       .  A
C1075      C1076   1.395       .  A
C1075      N1082   1.426       .  S
C1076      C1077   1.398       .  A
C1076      H1081   1.085       .  S
C1077      C1078   1.419       .  A
C1078      N1079   1.424       .  S
N1079      O1084   1.262       .  A
N1079      O1083   1.261       .  A
N1082      O1085   1.262       .  A
N1082      O1086   1.262       .  A
C1087      C1088   1.405       .  A
C1087      C1092   1.391       .  A
C1087      H1094   1.075       .  S
C1088      C1089   1.425       .  A
C1089      C1090   1.401       .  A
C1089      N1096   1.428       .  S
C1090      C1091   1.399       .  A
C1090      H1095   1.084       .  S
C1091      C1092   1.411       .  A
C1092      N1093   1.427   1_556  S
N1093      O1097   1.262   1_554  A
N1096      O1099   1.262       .  A
N1096      O1100   1.262       .  A
C1101      C1102   1.396       .  A
C1101      C1106   1.394       .  A
C1101      H1108   1.085       .  S
C1102      C1103   1.416       .  A
C1103      C1104   1.392       .  A
C1103      N1110   1.429       .  S
C1104      C1105   1.395       .  A
C1104      H1109   1.085   1_556  S
C1105      C1106   1.412       .  A
C1106      N1107   1.425       .  S
N1107      O1112   1.262       .  A
N1107      O1111   1.262       .  A
N1110      O1113   1.261   1_556  A
N1110      O1114   1.261   1_556  A
C1115      C1116   1.401       .  A
C1115      C1120   1.397       .  A
C1115      H1122   1.084       .  S
C1116      C1117   1.421       .  A
C1117      C1118   1.397       .  A
C1117      N1124   1.426       .  S
C1118      C1119   1.397       .  A
C1118      H1123   1.084       .  S
C1119      C1120   1.420       .  A
C1120      N1121   1.426       .  S
N1121      O1126   1.261       .  A
N1121      O1125   1.262       .  A
N1124      O1503   1.262   1_545  A
N1124      O1128   1.261   1_545  A
O1127      N1500   1.262       .  A
C1129      C1130   1.553       .  S
C1129      C1135   1.533       .  S
C1129      C1133   1.536       .  S
C1129      C1464   1.539       .  S
C1130      H1137   1.078       .  S
C1130      C1131   1.358       .  D
C1131      C1132   1.534       .  S
C1131      C1478   1.475       .  S
C1132      C1136   1.554       .  S
C1132      C1134   1.539       .  S
C1132      H1138   1.109       .  S
C1133      H1139   1.086       .  S
C1133      C1134   1.373       .  D
C1134      C1495   1.496       .  S
C1135      H1140   1.085       .  S
C1135      C1136   1.364       .  D
C1136      C1450   1.497       .  S
C1141      C1142   1.529       .  S
C1141      C1147   1.555       .  S
C1141      C1145   1.532       .  S
C1141      C1411   1.540       .  S
C1142      H1149   1.086       .  S
C1142      C1143   1.360       .  D
C1143      C1144   1.546       .  S
C1143      C1439   1.473       .  S
C1144      C1148   1.540       .  S
C1144      C1146   1.552       .  S
C1144      H1150   1.110       .  S
C1145      H1151   1.083       .  S
C1145      C1146   1.366       .  D
C1146      C1422   1.489       .  S
C1147      H1152   1.079       .  S
C1147      C1148   1.368       .  D
C1148      C1453   1.507       .  S
C1153      C1154   1.547       .  S
C1153      C1159   1.533       .  S
C1153      C1157   1.540       .  S
C1153      C1394   1.535       .  S
C1154      H1161   1.082       .  S
C1154      C1155   1.362       .  D
C1155      C1156   1.553       .  S
C1155      C1380   1.493       .  S
C1156      C1160   1.536       .  S
C1156      C1158   1.536       .  S
C1156      H1162   1.111       .  S
C1157      H1163   1.084       .  S
C1157      C1158   1.367       .  D
C1158      C1369   1.481       .  S
C1159      H1164   1.086       .  S
C1159      C1160   1.361       .  D
C1160      C1355   1.480       .  S
C1165      C1166   1.537       .  S
C1165      C1171   1.554       .  S
C1165      C1169   1.539       .  S
C1165      C1324   1.548       .  S
C1166      H1173   1.086       .  S
C1166      C1167   1.364       .  D
C1167      C1168   1.546       .  S
C1167      C1341   1.483       .  S
C1168      C1172   1.522       .  S
C1168      C1170   1.556       .  S
C1168      H1174   1.108       .  S
C1169      H1175   1.081       .  S
C1169      C1170   1.371       .  D
C1170      C1313   1.502       .  S
C1171      H1176   1.077       .  S
C1171      C1172   1.362       .  D
C1172      C1352   1.488       .  S
Zr1177     O1178   2.438       .  S
Zr1177     O1179   2.443   1_556  S
O1178      H1234   0.990       .  S
O1178      H1242   0.990       .  S
O1179      C1199   1.285       .  A
O1180      C1201   1.280       .  A
O1181     Zr1191   2.437   1_556  S
O1181      C1200   1.286       .  A
O1182     Zr1190   2.453       .  S
O1182      C1201   1.292       .  A
O1183      C1200   1.279       .  A
O1184     Zr1192   2.437       .  S
O1184      C1199   1.284       .  A
O1185     Zr1190   2.389   1_554  S
O1186     Zr1191   2.387       .  S
O1186      H1221   0.964       .  S
O1187     Zr1190   2.389       .  S
O1187      H1224   0.962       .  S
O1188     Zr1191   2.390   1_556  S
Zr1189     O1214   2.442       .  S
Zr1189     O1208   2.419       .  S
Zr1189     O1197   2.381   1_554  S
Zr1189     O1198   2.382   1_554  S
Zr1190     O1209   2.435       .  S
Zr1190     O1202   2.435   1_556  S
Zr1190     O1203   2.437   1_556  S
Zr1190     O1196   2.403   1_556  S
Zr1191     O1193   2.434   1_554  S
Zr1191     O1215   2.438       .  S
Zr1191     O1217   2.428       .  S
Zr1191     O1195   2.397       .  S
O1193      H1230   0.990       .  S
O1194      H1225   0.990       .  S
O1194      H1239   0.990       .  S
O1196      H1222   0.958       .  S
O1197     Zr1207   2.366       .  S
O1198     Zr1207   2.372       .  S
C1199      C1397   1.481       .  S
C1200      C1481   1.465       .  S
C1201      C1492   1.499       .  S
O1202      H1238   0.990       .  S
O1203      C1205   1.285       .  A
O1204      C1205   1.288       .  A
C1205      C1366   1.481       .  S
O1206     Zr1207   2.436       .  S
O1206      H1235   0.990       .  S
Zr1207     O1212   2.435       .  S
O1208      C1213   1.281   1_554  A
O1209      H1226   0.991       .  S
O1209      H1241   0.990       .  S
O1211      H1240   0.990       .  S
O1212      C1213   1.286       .  A
C1213      C1467   1.476       .  S
O1214      H1233   0.990       .  S
O1214      H1237   0.990       .  S
O1215      H1229   0.990       .  S
O1215      H1236   0.989       .  S
O1216      C1220   1.292       .  A
O1217      C1220   1.282       .  A
O1218      H1228   0.990       .  S
C1220      C1383   1.499       .  S
Zr1243     O1244   2.440       .  S
Zr1243     O1245   2.445       .  S
Zr1243     O1252   2.381   1_655  S
O1244      H1300   0.990       .  S
O1244      H1308   0.990       .  S
O1245      C1265   1.289       .  A
O1246      C1267   1.288   1_545  A
O1247     Zr1257   2.439       .  S
O1247      C1266   1.285       .  A
O1248     Zr1256   2.429       .  S
O1248      C1267   1.283       .  A
O1249      C1266   1.287       .  A
O1250     Zr1258   2.413       .  S
O1250      C1265   1.279       .  A
O1251     Zr1256   2.396       .  S
O1252     Zr1258   2.371   1_455  S
O1253     Zr1256   2.397       .  S
O1253      H1290   0.949       .  S
O1254     Zr1257   2.397       .  S
Zr1255     O1280   2.439       .  S
Zr1255     O1274   2.441       .  S
Zr1256     O1275   2.436       .  S
Zr1256     O1268   2.434       .  S
Zr1256     O1269   2.438       .  S
Zr1256     O1262   2.399       .  S
Zr1256     O1263   2.388       .  S
Zr1257     O1259   2.435       .  S
Zr1257     O1281   2.436       .  S
Zr1257     O1283   2.445       .  S
Zr1257     O1261   2.390       .  S
Zr1257     O1264   2.389       .  S
Zr1258     O1285   2.434       .  S
O1259      H1296   0.990       .  S
O1260      H1305   0.990       .  S
O1262      H1288   0.962       .  S
O1264      H1289   0.964       .  S
C1265      C1408   1.492       .  S
C1266      C1338   1.492       .  S
C1267      C1310   1.490       .  S
O1268      H1304   0.991       .  S
O1269      C1271   1.284       .  A
O1270      C1271   1.288       .  A
C1271      C1425   1.495       .  S
Zr1273     O1278   2.431   1_545  S
O1274      C1279   1.287       .  A
O1275      H1292   0.990       .  S
O1275      H1307   0.990       .  S
O1276      H1293   0.990       .  S
O1277      H1297   0.990       .  S
O1277      H1306   0.990       .  S
O1278      C1279   1.283       .  A
C1279      C1327   1.498       .  S
O1281      H1295   0.990       .  S
O1281      H1302   0.990       .  S
O1282      C1286   1.283       .  A
O1283      C1286   1.289       .  A
C1286      C1436   1.478       .  S
C1309      C1310   1.402       .  A
C1309      C1314   1.403       .  A
C1309      H1316   1.084   1_565  S
C1310      C1311   1.414       .  A
C1311      C1312   1.391       .  A
C1311      N1318   1.426       .  S
C1312      C1313   1.399       .  A
C1312      H1317   1.076       .  S
C1313      C1314   1.424       .  A
C1314      N1315   1.427       .  S
N1315      O1320   1.262   1_565  A
N1318      O1321   1.262       .  A
N1318      O1322   1.262       .  A
C1323      C1324   1.406       .  A
C1323      C1328   1.392       .  A
C1323      H1330   1.070       .  S
C1324      C1325   1.425       .  A
C1325      C1326   1.406       .  A
C1325      N1332   1.427       .  S
C1326      C1327   1.404       .  A
C1326      H1331   1.084       .  S
C1327      C1328   1.414       .  A
C1328      N1329   1.427       .  S
N1329      O1334   1.262       .  A
N1329      O1333   1.262       .  A
N1332      O1335   1.262       .  A
N1332      O1336   1.262       .  A
C1337      C1338   1.405       .  A
C1337      C1342   1.397       .  A
C1337      H1344   1.084       .  S
C1338      C1339   1.419       .  A
C1339      C1340   1.399       .  A
C1339      N1346   1.426       .  S
C1340      C1341   1.395       .  A
C1340      H1345   1.080       .  S
C1341      C1342   1.411       .  A
C1342      N1343   1.426       .  S
N1343      O1348   1.262       .  A
N1343      O1347   1.262       .  A
N1346      O1349   1.262       .  A
C1351      C1352   1.399       .  A
C1351      C1356   1.393       .  A
C1351      H1358   1.085       .  S
C1352      C1353   1.414       .  A
C1353      C1354   1.401       .  A
C1353      N1360   1.425       .  S
C1354      C1355   1.399       .  A
C1354      H1359   1.084       .  S
C1355      C1356   1.414       .  A
C1356      N1357   1.427       .  S
N1357      O1362   1.262       .  A
N1357      O1361   1.261       .  A
N1360      O1363   1.262       .  A
N1360      O1364   1.262       .  A
C1365      C1366   1.401       .  A
C1365      C1370   1.401       .  A
C1366      C1367   1.414       .  A
C1367      C1368   1.397       .  A
C1367      N1374   1.425   1_554  S
C1368      C1369   1.396       .  A
C1368      H1373   1.085       .  S
C1369      C1370   1.413       .  A
C1370      N1371   1.425       .  S
N1371      O1376   1.262       .  A
N1374      O1377   1.262       .  A
N1374      O1378   1.262       .  A
C1379      C1380   1.395       .  A
C1379      C1384   1.399       .  A
C1379      H1386   1.084       .  S
C1380      C1381   1.419       .  A
C1381      C1382   1.400       .  A
C1381      N1388   1.427       .  S
C1382      C1383   1.404       .  A
C1382      H1387   1.084       .  S
C1383      C1384   1.423       .  A
C1384      N1385   1.426       .  S
N1385      O1390   1.262       .  A
N1385      O1389   1.262       .  A
N1388      O1391   1.262       .  A
N1388      O1392   1.262       .  A
C1393      C1394   1.404       .  A
C1393      C1398   1.392       .  A
C1393      H1400   1.077       .  S
C1394      C1395   1.421       .  A
C1395      C1396   1.409       .  A
C1395      N1402   1.431       .  S
C1396      C1397   1.405       .  A
C1396      H1401   1.084       .  S
C1397      C1398   1.409       .  A
N1399      O1404   1.262       .  A
N1399      O1403   1.262       .  A
N1402      O1405   1.262       .  A
N1402      O1406   1.262       .  A
C1407      C1408   1.401       .  A
C1407      C1412   1.403       .  A
C1407      H1414   1.084       .  S
C1408      C1409   1.417       .  A
C1409      C1410   1.390       .  A
C1409      N1416   1.427       .  S
C1410      C1411   1.402       .  A
C1410      H1415   1.072       .  S
C1411      C1412   1.426       .  A
C1412      N1413   1.427       .  S
N1413      O1418   1.262       .  A
N1413      O1417   1.262       .  A
N1416      O1419   1.262       .  A
N1416      O1420   1.262       .  A
C1421      C1422   1.399       .  A
C1421      C1426   1.400       .  A
C1421      H1428   1.083       .  S
C1422      C1423   1.416       .  A
C1423      C1424   1.394       .  A
C1423      N1430   1.427       .  S
C1424      C1425   1.404       .  A
C1424      H1429   1.084       .  S
C1425      C1426   1.420       .  A
C1426      N1427   1.426       .  S
N1427      O1432   1.262       .  A
N1427      O1431   1.262       .  A
N1430      O1433   1.262       .  A
N1430      O1434   1.262       .  A
C1435      C1436   1.399       .  A
C1435      C1440   1.397       .  A
C1435      H1442   1.084       .  S
C1436      C1437   1.415       .  A
C1437      C1438   1.398       .  A
C1437      N1444   1.426       .  S
C1438      C1439   1.392       .  A
C1438      H1443   1.078       .  S
C1439      C1440   1.409       .  A
C1440      N1441   1.425       .  S
N1441      O1446   1.261       .  A
N1441      O1445   1.261       .  A
N1444      O1447   1.262       .  A
N1444      O1448   1.262       .  A
C1449      C1450   1.399       .  A
C1449      C1454   1.409       .  A
C1449      H1456   1.084       .  S
C1450      C1451   1.417       .  A
C1451      C1452   1.399       .  A
C1451      N1458   1.427       .  S
C1452      C1453   1.402       .  A
C1452      H1457   1.085       .  S
C1453      C1454   1.419       .  A
C1454      N1455   1.422       .  S
N1455      O1460   1.262       .  A
N1455      O1459   1.261       .  A
N1458      O1461   1.262       .  A
N1458      O1462   1.262       .  A
C1463      C1464   1.407       .  A
C1463      C1468   1.391       .  A
C1463      H1470   1.073       .  S
C1464      C1465   1.425       .  A
C1465      C1466   1.400       .  A
C1465      N1472   1.427       .  S
C1466      C1467   1.397       .  A
C1466      H1471   1.085       .  S
C1467      C1468   1.409       .  A
C1468      N1469   1.427   1_556  S
N1469      O1473   1.262   1_554  A
N1472      O1475   1.262       .  A
N1472      O1476   1.262       .  A
C1477      C1478   1.395       .  A
C1477      C1482   1.394       .  A
C1477      H1484   1.085       .  S
C1478      C1479   1.419       .  A
C1479      C1480   1.395       .  A
C1479      N1486   1.429       .  S
C1480      C1481   1.395       .  A
C1480      H1485   1.085   1_556  S
C1481      C1482   1.412       .  A
C1482      N1483   1.425       .  S
N1483      O1488   1.262       .  A
N1483      O1487   1.262       .  A
N1486      O1489   1.262   1_556  A
N1486      O1490   1.262   1_556  A
C1491      C1492   1.402       .  A
C1491      C1496   1.399       .  A
C1491      H1498   1.084       .  S
C1492      C1493   1.423       .  A
C1493      C1494   1.400       .  A
C1493      N1500   1.426       .  S
C1494      C1495   1.398       .  A
C1494      H1499   1.084       .  S
C1495      C1496   1.419       .  A
C1496      N1497   1.425       .  S
N1497      O1502   1.261       .  A
N1497      O1501   1.261       .  A
N1500      O1504   1.261       .  A
