geometry optimzed in LAMMPS
_audit_creation_date              2020-11-30 
_audit_creation_method            'lammps2cif' 
_symmetry_space_group_name_H-M    'P1' 
_symmetry_Int_Tables_number       1 
_symmetry_cell_setting            triclinic 
loop_ 
_symmetry_equiv_pos_as_xyz 
  x,y,z 
_cell_length_a                    63.356412926008844 
_cell_length_b                    63.37535444823156 
_cell_length_c                    35.3298486678969 
_cell_angle_alpha                 89.33522079709229 
_cell_angle_beta                  90.11592241184486 
_cell_angle_gamma                 130.0126238409953 
loop_ 
_atom_site_label 
_atom_site_type_symbol 
_atom_site_fract_x 
_atom_site_fract_y 
_atom_site_fract_z 
_atom_site_charge 
C1          C  0.67153157  0.33877237  0.13000199    -0.02020
C2          C  0.73088410  0.36505384  0.26204252    -0.02020
C3          C  0.62891486  0.26951461  0.26271614    -0.02020
C4          C  0.63814350  0.36109171  0.25026991    -0.02020
N5          N  0.49519006  0.51839327  0.33792916    -0.26820
N6          N  0.50856801  0.52486466  0.37021967    -0.34680
C7          C  0.51922996  0.51232779  0.37259773     0.01520
C8          C  0.51204241  0.49667868  0.34076842     0.07540
C9          C  0.49676091  0.50097535  0.31912642    -0.05550
H10         H  0.52830181  0.51162170  0.39805674     0.08210
H11         H  0.48528920  0.49008495  0.29381457     0.09410
Cu12       Cu  0.50389076  0.54064820  0.41695430     0.44170
Cu13       Cu  0.47231878  0.53074614  0.32553107     0.41990
Cu14       Cu  0.45668361  0.55062560  0.41294731     0.43880
N15         N  0.48744108  0.54281801  0.46552938    -0.34210
N16         N  0.46850381  0.54552565  0.46412170    -0.28460
C17         C  0.46016032  0.54466900  0.49950234    -0.04560
C18         C  0.47475978  0.54130152  0.52430624     0.07650
C19         C  0.49183653  0.54015834  0.50180610     0.01450
H20         H  0.44489230  0.54663467  0.50657455     0.09100
H21         H  0.50615266  0.53730115  0.51101012     0.08180
N22         N  0.45108781  0.55800038  0.35849828    -0.35660
N23         N  0.45555271  0.55029374  0.32691651    -0.27840
C24         C  0.44808735  0.55777952  0.29730696    -0.03080
C25         C  0.43919314  0.57122575  0.31126076     0.05530
C26         C  0.44118962  0.57081740  0.34992393     0.03630
H27         H  0.44864348  0.55335873  0.26800721     0.08730
H28         H  0.43485244  0.57831153  0.37051624     0.07570
N29         N  0.53116713  0.45424389  0.33740112    -0.26820
N30         N  0.51728808  0.44628932  0.36962175    -0.34680
C31         C  0.50479863  0.45700071  0.37187263     0.01520
C32         C  0.51144850  0.47314847  0.34009860     0.07540
C33         C  0.52820914  0.47087807  0.31860696    -0.05550
H34         H  0.49540193  0.45681799  0.39756575     0.08210
H35         H  0.54017750  0.48315702  0.29389523     0.09410
Cu36       Cu  0.52489809  0.43254006  0.41654858     0.44170
Cu37       Cu  0.55771203  0.44632165  0.32634842     0.41990
Cu38       Cu  0.58111504  0.43433635  0.41467320     0.43880
N39         N  0.54249292  0.43209257  0.46542572    -0.34210
N40         N  0.56393655  0.43308874  0.46513476    -0.28460
C41         C  0.57119626  0.43327283  0.50106908    -0.04560
C42         C  0.55350860  0.43268352  0.52495430     0.07650
C43         C  0.53567297  0.43204652  0.50137354     0.01450
H44         H  0.58813697  0.43399953  0.50911846     0.09100
H45         H  0.51897645  0.43162305  0.50964387     0.08180
N46         N  0.58977509  0.43028160  0.36020050    -0.35660
N47         N  0.58097241  0.43368523  0.32852341    -0.27840
C48         C  0.58797524  0.42587997  0.29914160    -0.03080
C49         C  0.60204634  0.41762168  0.31322174     0.05530
C50         C  0.60273097  0.42055677  0.35180548     0.03630
H51         H  0.58236338  0.42530635  0.26999505     0.08730
H52         H  0.61075260  0.41464752  0.37251230     0.07570
N53         N  0.06080531  0.48969618  0.34264651    -0.26820
N54         N  0.04606048  0.47319799  0.37179274    -0.34680
C55         C  0.02182506  0.46773786  0.37246552     0.01520
C56         C  0.02109958  0.48154976  0.34270126     0.07540
C57         C  0.04627299  0.49545776  0.32444697    -0.05550
H58         H  0.00748531  0.45778422  0.39604381     0.08210
H59         H  0.05463310  0.51103369  0.30243793     0.09410
Cu60       Cu  0.06158096  0.46656753  0.41764660     0.44170
Cu61       Cu  0.10194297  0.50804457  0.33409763     0.41990
Cu62       Cu  0.13376597  0.50654696  0.41914333     0.43880
N63         N  0.08250969  0.47191388  0.46654542    -0.34210
N64         N  0.10953775  0.48698047  0.46695069    -0.28460
C65         C  0.11782842  0.48930613  0.50280723    -0.04560
C66         C  0.09488594  0.47522755  0.52621294     0.07650
C67         C  0.07279883  0.46440351  0.50228344     0.01450
H68         H  0.13912545  0.50159969  0.51131669     0.09100
H69         H  0.05149339  0.45312986  0.51034655     0.08180
N70         N  0.15435009  0.52496187  0.36853513    -0.35660
N71         N  0.14292634  0.52485852  0.33705884    -0.27840
C72         C  0.16224392  0.53792322  0.30946203    -0.03080
C73         C  0.18689183  0.54691272  0.32472488     0.05530
C74         C  0.18116824  0.53843416  0.36210211     0.03630
H75         H  0.15875923  0.54117595  0.28078470     0.08730
H76         H  0.19541823  0.54162425  0.38307157     0.07570
N77         N  0.96459658  0.48191724  0.34601321    -0.26820
N78         N  0.98022981  0.49861270  0.37399916    -0.34680
C79         C  0.00434229  0.50382903  0.37304215     0.01520
C80         C  0.00408954  0.48970269  0.34337467     0.07540
C81         C  0.97846533  0.47583736  0.32691784    -0.05550
H82         H  0.01942256  0.51403577  0.39543613     0.08210
H83         H  0.96946691  0.46021459  0.30544081     0.09410
Cu84       Cu  0.96657070  0.50668393  0.42030118     0.44170
Cu85       Cu  0.92346227  0.46424604  0.33960369     0.41990
Cu86       Cu  0.89617091  0.47397935  0.42187443     0.43880
N87         N  0.94671362  0.50358206  0.46916688    -0.34210
N88         N  0.92017573  0.49103959  0.46951905    -0.28460
C89         C  0.91194874  0.48927407  0.50524926    -0.04560
C90         C  0.93444471  0.50124088  0.52864582     0.07650
C91         C  0.95621287  0.51016107  0.50485239     0.01450
H92         H  0.89089104  0.47890877  0.51366632     0.09100
H93         H  0.97700642  0.51944713  0.51300773     0.08180
N94         N  0.87426466  0.45489498  0.37313693    -0.35660
N95         N  0.88358142  0.45070318  0.34324375    -0.27840
C96         C  0.86331702  0.43678828  0.31746740    -0.03080
C97         C  0.84013040  0.43194906  0.33199219     0.05530
C98         C  0.84809775  0.44397329  0.36728308     0.03630
H99         H  0.86523293  0.43028571  0.29044311     0.08730
H100        H  0.83607702  0.44508449  0.38747492     0.07570
C101        C  0.36097183  0.64111762  0.13045702    -0.02020
C102        C  0.29749927  0.60590251  0.26140437    -0.02020
C103        C  0.39380486  0.70573387  0.24932973    -0.02020
C104        C  0.37878244  0.60351828  0.24736639    -0.02020
N105        N  0.51704720  0.03247643  0.34219900    -0.26820
N106        N  0.50125768  0.01793846  0.37197476    -0.34680
C107        C  0.49575184  0.99367946  0.37272753     0.01520
C108        C  0.50870764  0.99266482  0.34234362     0.07540
C109        C  0.52221323  0.01771628  0.32365799    -0.05550
H110        H  0.48621176  0.97941294  0.39652491     0.08210
H111        H  0.53709405  0.02580850  0.30088676     0.09410
Cu112      Cu  0.49483660  0.03313849  0.41808122     0.44170
Cu113      Cu  0.53525550  0.07358756  0.33221225     0.41990
Cu114      Cu  0.53381172  0.10445606  0.41724955     0.43880
N115        N  0.49983222  0.05410023  0.46642166    -0.34210
N116        N  0.51485049  0.08110267  0.46592245    -0.28460
C117        C  0.51695421  0.08978458  0.50130762    -0.04560
C118        C  0.50269668  0.06709703  0.52540847     0.07650
C119        C  0.49204429  0.04475043  0.50233423     0.01450
H120        H  0.52901924  0.11115486  0.50905312     0.09100
H121        H  0.48062749  0.02351849  0.51114808     0.08180
N122        N  0.55049501  0.12497353  0.36611643    -0.35660
N123        N  0.55102874  0.11430623  0.33459947    -0.27840
C124        C  0.56247065  0.13366256  0.30681919    -0.03080
C125        C  0.56934667  0.15760466  0.32177090     0.05530
C126        C  0.56151374  0.15109849  0.35949092     0.03630
H127        H  0.56492605  0.13023039  0.27784821     0.08730
H128        H  0.56357545  0.16430857  0.38098910     0.07570
N129        N  0.50871514  0.93584370  0.34374371    -0.26820
N130        N  0.52586116  0.95119991  0.37149379    -0.34680
C131        C  0.53111065  0.97532384  0.37129443     0.01520
C132        C  0.51656770  0.97539310  0.34224760     0.07540
C133        C  0.50237926  0.94991123  0.32542960    -0.05550
H134        H  0.54163979  0.99014513  0.39384286     0.08210
H135        H  0.48644276  0.94114967  0.30429773     0.09410
Cu136      Cu  0.53377741  0.93642078  0.41675024     0.44170
Cu137      Cu  0.49127907  0.89483732  0.33745795     0.41990
Cu138      Cu  0.49831273  0.86459138  0.42035274     0.43880
N139        N  0.52871581  0.91601024  0.46630556    -0.34210
N140        N  0.51506898  0.88921882  0.46789976    -0.28460
C141        C  0.51234246  0.88140477  0.50434081    -0.04560
C142        C  0.52477232  0.90442688  0.52668608     0.07650
C143        C  0.53497047  0.92601247  0.50162233     0.01450
H144        H  0.50108672  0.86034711  0.51388796     0.09100
H145        H  0.54495366  0.94713597  0.50855593     0.08180
N146        N  0.48198514  0.84473982  0.36903732    -0.35660
N147        N  0.47894961  0.85539599  0.33930938    -0.27840
C148        C  0.46709009  0.83685829  0.31135383    -0.03080
C149        C  0.46254825  0.81328525  0.32377883     0.05530
C150        C  0.47229749  0.81925881  0.36067828     0.03630
H151        H  0.46171516  0.84040244  0.28440669     0.08730
H152        H  0.47224236  0.80606755  0.38041685     0.07570
N153        N  0.06265406  0.49243144  0.75012122    -0.26820
N154        N  0.04734617  0.47592406  0.72183456    -0.34680
C155        C  0.02307308  0.47041137  0.72250624     0.01520
C156        C  0.02281998  0.48408486  0.75239803     0.07540
C157        C  0.04839706  0.49808586  0.76916782    -0.05550
H158        H  0.00818134  0.46025944  0.69988140     0.08210
H159        H  0.05705339  0.51345452  0.79095737     0.09410
Cu160      Cu  0.06186439  0.46844099  0.67598053     0.44170
Cu161      Cu  0.10379143  0.50998604  0.75703594     0.41990
Cu162      Cu  0.13315351  0.50245528  0.67496414     0.43880
N163        N  0.08236461  0.47223204  0.62743866    -0.34210
N164        N  0.10905533  0.48535475  0.62707345    -0.28460
C165        C  0.11733749  0.48742105  0.59124476    -0.04560
C166        C  0.09473754  0.47504460  0.56787021     0.07650
C167        C  0.07285975  0.46556246  0.59176336     0.01450
H168        H  0.13847370  0.49823567  0.58273815     0.09100
H169        H  0.05195835  0.45591498  0.58367447     0.08180
N170        N  0.15379224  0.51971187  0.72538500    -0.35660
N171        N  0.14355809  0.52292615  0.75512492    -0.27840
C172        C  0.16271788  0.53527968  0.78248483    -0.03080
C173        C  0.18628491  0.54010720  0.76947879     0.05530
C174        C  0.17953390  0.52977529  0.73298634     0.03630
H175        H  0.15961563  0.54056133  0.80969689     0.08730
H176        H  0.19206779  0.52941547  0.71286093     0.07570
N177        N  0.96583355  0.48396814  0.75277713    -0.26820
N178        N  0.98110444  0.50109804  0.72438286    -0.34680
C179        C  0.00526532  0.50640681  0.72389721     0.01520
C180        C  0.00548598  0.49189945  0.75306351     0.07540
C181        C  0.98001587  0.47765907  0.77071603    -0.05550
H182        H  0.02000759  0.51694400  0.70082395     0.08210
H183        H  0.97135503  0.46173961  0.79227035     0.09410
Cu184      Cu  0.96648841  0.50911317  0.67907277     0.44170
Cu185      Cu  0.92474326  0.46648714  0.76080122     0.41990
Cu186      Cu  0.89527668  0.47399672  0.67780283     0.43880
N187        N  0.94624824  0.50471186  0.63004935    -0.34210
N188        N  0.91950393  0.49127419  0.62958107    -0.28460
C189        C  0.91142741  0.48893803  0.59359386    -0.04560
C190        C  0.93423651  0.50138865  0.57025556     0.07650
C191        C  0.95599740  0.51120372  0.59430306     0.01450
H192        H  0.89030591  0.47783932  0.58502223     0.09100
H193        H  0.97702772  0.52108852  0.58637684     0.08180
N194        N  0.87462051  0.45639359  0.72862122    -0.35660
N195        N  0.88484433  0.45325107  0.75878336    -0.27840
C196        C  0.86516319  0.43973807  0.78588485    -0.03080
C197        C  0.84175564  0.43449493  0.77202416     0.05530
C198        C  0.84838785  0.44508167  0.73566389     0.03630
H199        H  0.86741825  0.43340922  0.81310893     0.08730
H200        H  0.83482828  0.44376742  0.71527736     0.07570
C201        C  0.36413479  0.64274265  0.96157572    -0.02020
C202        C  0.29350166  0.60789441  0.84531611    -0.02020
C203        C  0.39392874  0.70018241  0.82810967    -0.02020
C204        C  0.39143205  0.61574190  0.84251532    -0.02020
N205        N  0.51631594  0.03461297  0.75128408    -0.26820
N206        N  0.49978668  0.01961075  0.72283122    -0.34680
C207        C  0.49467515  0.99555209  0.72283164     0.01520
C208        C  0.50870219  0.99515613  0.75237986     0.07540
C209        C  0.52241380  0.02038668  0.76976655    -0.05550
H210        H  0.48469385  0.98105991  0.69984680     0.08210
H211        H  0.53799011  0.02895296  0.79141086     0.09410
Cu212      Cu  0.49254330  0.03465861  0.67693553     0.44170
Cu213      Cu  0.53378480  0.07559689  0.75842098     0.41990
Cu214      Cu  0.53048309  0.10667714  0.67331827     0.43880
N215        N  0.49788122  0.05530262  0.62731280    -0.34210
N216        N  0.51243968  0.08225273  0.62594299    -0.28460
C217        C  0.51529956  0.09036936  0.58966285    -0.04560
C218        C  0.50203254  0.06739225  0.56705106     0.07650
C219        C  0.49114626  0.04547541  0.59187273     0.01450
H220        H  0.52734818  0.11159271  0.58037794     0.09100
H221        H  0.48051356  0.02425178  0.58464200     0.08180
N222        N  0.54726831  0.12697235  0.72404395    -0.35660
N223        N  0.54834973  0.11590514  0.75511381    -0.27840
C224        C  0.56021218  0.13480449  0.78265927    -0.03080
C225        C  0.56715737  0.15913031  0.76820988     0.05530
C226        C  0.55850204  0.15311080  0.73086600     0.03630
H227        H  0.56316607  0.13072042  0.81107744     0.08730
H228        H  0.56040683  0.16671820  0.70972032     0.07570
N229        N  0.50905994  0.93855860  0.75190604    -0.26820
N230        N  0.52490966  0.95340561  0.72229993    -0.34680
C231        C  0.53013617  0.97752506  0.72188758     0.01520
C232        C  0.51689615  0.97814647  0.75224451     0.07540
C233        C  0.50356005  0.95300250  0.77063554    -0.05550
H234        H  0.53965932  0.99194818  0.69826335     0.08210
H235        H  0.48857462  0.94463079  0.79332322     0.09410
Cu236      Cu  0.53181680  0.93895525  0.67568588     0.44170
Cu237      Cu  0.49132176  0.89745681  0.76150664     0.41990
Cu238      Cu  0.49721417  0.86899004  0.67733698     0.43880
N239        N  0.52752728  0.91845294  0.62714823    -0.34210
N240        N  0.51405299  0.89173386  0.62811851    -0.28460
C241        C  0.51180491  0.88284474  0.59285332    -0.04560
C242        C  0.52445050  0.90512995  0.56829152     0.07650
C243        C  0.53424723  0.92745620  0.59097173     0.01450
H244        H  0.50081362  0.86156017  0.58557552     0.09100
H245        H  0.54439947  0.94836384  0.58176136     0.08180
N246        N  0.47966724  0.84768311  0.72741300    -0.35660
N247        N  0.47683238  0.85713120  0.75842022    -0.27840
C248        C  0.46333393  0.83663498  0.78465870    -0.03080
C249        C  0.45748288  0.81329739  0.76906566     0.05530
C250        C  0.46833380  0.82137155  0.73284644     0.03630
H251        H  0.45757153  0.83843933  0.81246816     0.08730
H252        H  0.46801344  0.80907103  0.71152807     0.07570
C253        C  0.67090569  0.32822435  0.96150432    -0.02020
C254        C  0.73136615  0.36507999  0.83967964    -0.02020
C255        C  0.62974837  0.26849042  0.83692783    -0.02020
C256        C  0.63891067  0.35766509  0.83419263    -0.02020
N257        N  0.53157208  0.45557124  0.75409462    -0.26820
N258        N  0.52003425  0.45069514  0.72055684    -0.34680
C259        C  0.50940529  0.46323946  0.71774233     0.01520
C260        C  0.51461796  0.47727643  0.75063882     0.07540
C261        C  0.52879921  0.47203712  0.77335268    -0.05550
H262        H  0.50142063  0.46481406  0.69172623     0.08210
H263        H  0.53855167  0.48150894  0.80012672     0.09410
Cu264      Cu  0.52631133  0.43624597  0.67390136     0.44170
Cu265      Cu  0.55342813  0.44200215  0.76767436     0.41990
Cu266      Cu  0.57278573  0.42595566  0.67885729     0.43880
N267        N  0.54208039  0.43318999  0.62546269    -0.34210
N268        N  0.56065861  0.43000312  0.62691401    -0.28460
C269        C  0.56804914  0.42956306  0.59139201    -0.04560
C270        C  0.55319274  0.43263735  0.56656309     0.07650
C271        C  0.53701098  0.43495488  0.58918854     0.01450
H272        H  0.58277565  0.42686766  0.58424241     0.09100
H273        H  0.52267295  0.43779881  0.58005724     0.08180
N274        N  0.57899878  0.41918446  0.73358062    -0.35660
N275        N  0.57230521  0.42433252  0.76563436    -0.27840
C276        C  0.58008372  0.41673170  0.79484361    -0.03080
C277        C  0.59245580  0.40677872  0.78012043     0.05530
C278        C  0.59112382  0.40850245  0.74140976     0.03630
H279        H  0.57768864  0.41905437  0.82443392     0.08730
H280        H  0.59867187  0.40257947  0.72018416     0.07570
N281        N  0.49199147  0.51675980  0.75422613    -0.26820
N282        N  0.50727225  0.52636778  0.72314913    -0.34720
C283        C  0.52114402  0.51709340  0.72157536     0.01520
C284        C  0.51395623  0.50003735  0.75245384     0.07540
C285        C  0.49539551  0.50035995  0.77280428    -0.05550
H286        H  0.53192284  0.51873785  0.69648430     0.08210
H287        H  0.48270349  0.48695797  0.79639405     0.09410
Cu288      Cu  0.50000483  0.53998186  0.67566481     0.44170
Cu289      Cu  0.46372457  0.52289031  0.76381331     0.41990
Cu290      Cu  0.44169566  0.53487987  0.67447093     0.43880
N291        N  0.48286826  0.53982025  0.62582897    -0.34210
N292        N  0.46066982  0.53755943  0.62507492    -0.28460
C293        C  0.45418143  0.53772961  0.58884079    -0.04560
C294        C  0.47316139  0.53987746  0.56582773     0.07650
C295        C  0.49095169  0.54102213  0.59020551     0.01450
H296        H  0.43699557  0.53638729  0.57999624     0.09100
H297        H  0.50858158  0.54279359  0.58269721     0.08180
N298        N  0.43212843  0.53905839  0.72820926    -0.35660
N299        N  0.44033801  0.53556103  0.76039126    -0.27840
C300        C  0.43319256  0.54376707  0.78905144    -0.03080
C301        C  0.41988654  0.55281965  0.77409770     0.05530
C302        C  0.41952677  0.54931172  0.73551475     0.03630
H303        H  0.43805456  0.54381449  0.81842206     0.08730
H304        H  0.41223774  0.55545169  0.71390452     0.07570
C305        C  0.64260512  0.39502566  0.79857470    -0.20840
C306        C  0.62918698  0.37411378  0.82672694    -0.08880
C307        C  0.60424789  0.36597885  0.84209773     0.29980
C308        C  0.59319258  0.37812428  0.82904398    -0.20840
C309        C  0.60622256  0.39782477  0.79963376    -0.08890
C310        C  0.63137436  0.40661797  0.78526336     0.29990
F311        F  0.64476044  0.42586024  0.75705592    -0.19410
H312        H  0.66129133  0.40177131  0.78488414     0.18350
H313        H  0.57358724  0.37087291  0.84019571     0.18360
F314        F  0.58986023  0.34549000  0.86849171    -0.19400
C315        C  0.59571343  0.30395190  0.82318732    -0.20840
C316        C  0.62006284  0.33027926  0.80900842    -0.08880
C317        C  0.63315988  0.32524235  0.78421318     0.29980
C318        C  0.64120298  0.31195143  0.80256638    -0.20840
C319        C  0.62150752  0.28649726  0.82138801    -0.08890
C320        C  0.59567855  0.28097532  0.82583227     0.29990
F321        F  0.57179641  0.25522340  0.83313419    -0.19410
H322        H  0.57913403  0.30208746  0.83616631     0.18350
H323        H  0.66105154  0.32514768  0.81558601     0.18360
F324        F  0.62094278  0.31487787  0.75010243    -0.19400
C325        C  0.71323171  0.39284528  0.85586290    -0.20840
C326        C  0.71696722  0.37827759  0.83022145    -0.08880
C327        C  0.70671635  0.37747297  0.79404680     0.29980
C328        C  0.68338066  0.37592523  0.79140868    -0.20840
C329        C  0.67116501  0.37618451  0.82499455    -0.08890
C330        C  0.69079544  0.39212864  0.85310146     0.29990
F331        F  0.68864700  0.40718557  0.87714263    -0.19410
H332        H  0.72860999  0.40785600  0.87492089     0.18350
H333        H  0.67421869  0.37288980  0.76398605     0.18360
F334        F  0.72023566  0.38058046  0.76199192    -0.19400
C335        C  0.69713409  0.32468916  0.78935054    -0.20840
C336        C  0.71134185  0.33376243  0.82462025    -0.08880
C337        C  0.70675658  0.31116782  0.84312415     0.29980
C338        C  0.68043467  0.28518717  0.84213996    -0.20840
C339        C  0.65973993  0.28163254  0.82067885    -0.08890
C340        C  0.67148238  0.29737724  0.78660548     0.29990
F341        F  0.65625543  0.28963848  0.75468974    -0.19410
H342        H  0.70441789  0.33783757  0.76491092     0.18350
H343        H  0.67777250  0.26740447  0.85186749     0.18360
F344        F  0.72820368  0.31190406  0.85064823    -0.19400
C345        C  0.62189474  0.28312729  0.94080919    -0.20840
C346        C  0.64913804  0.29569536  0.95319686    -0.08880
C347        C  0.65688548  0.28050685  0.94114294     0.29980
C348        C  0.64743243  0.26692360  0.90607195    -0.20840
C349        C  0.62931585  0.26751876  0.88295232    -0.08890
C350        C  0.61186876  0.26860108  0.90624961     0.29990
F351        F  0.58598595  0.25707990  0.89620008    -0.19410
H352        H  0.61056582  0.28896316  0.95211069     0.18350
H353        H  0.65289942  0.25453253  0.89919422     0.18360
F354        F  0.66756628  0.27342443  0.96639388    -0.19400
C355        C  0.65287722  0.35616870  0.94265279    -0.20840
C356        C  0.66141548  0.34046197  0.93494771    -0.08880
C357        C  0.65977643  0.33381333  0.89701402     0.29980
C358        C  0.63814341  0.32822881  0.87820107    -0.20840
C359        C  0.63600671  0.34819227  0.87633117    -0.08890
C360        C  0.64269172  0.36250565  0.91147300     0.29990
F361        F  0.64016697  0.38205309  0.91532470    -0.19410
H362        H  0.65551976  0.36448979  0.97046751     0.18350
H363        H  0.61851197  0.30964049  0.88719217     0.18360
F364        F  0.67182747  0.32407775  0.88292296    -0.19400
C365        C  0.71903610  0.37281979  0.93899114    -0.20840
C366        C  0.70145025  0.34406111  0.94684038    -0.08880
C367        C  0.71319123  0.33218350  0.93623500     0.29980
C368        C  0.73167463  0.34378447  0.90536750    -0.20840
C369        C  0.73709966  0.36591309  0.88452868    -0.08890
C370        C  0.73916289  0.38401995  0.91021719     0.29990
F371        F  0.76036558  0.41160310  0.90821087    -0.19410
H372        H  0.71612902  0.38585967  0.95313502     0.18350
H373        H  0.74426943  0.33812134  0.90102698     0.18360
F374        F  0.71325692  0.31563607  0.96058545    -0.19400
C375        C  0.58222163  0.20667365  0.76974863    -0.20840
C376        C  0.58119412  0.18603869  0.78737250    -0.08880
C377        C  0.59464679  0.19207315  0.82221951     0.29980
C378        C  0.60866630  0.21791468  0.83852808    -0.20840
C379        C  0.61017023  0.23898690  0.82096369    -0.08890
C380        C  0.59682572  0.23278095  0.78553073     0.29990
F381        F  0.59858792  0.25193378  0.76459864    -0.19410
H382        H  0.57224705  0.20304059  0.74288802     0.18350
H383        H  0.61902592  0.22129736  0.86470420     0.18360
F384        F  0.59558818  0.17367332  0.84015011    -0.19400
C385        C  0.41692247  0.59718933  0.84108415    -0.20840
C386        C  0.39562406  0.59619588  0.82570669    -0.08880
C387        C  0.38261536  0.58027858  0.79264614     0.29980
C388        C  0.38998502  0.56554651  0.77732292    -0.20840
C389        C  0.41080804  0.56647436  0.79340415    -0.08890
C390        C  0.42412629  0.58236293  0.82575094     0.29990
F391        F  0.44534110  0.58510519  0.84138763    -0.19410
H392        H  0.42891276  0.61023458  0.86479485     0.18350
H393        H  0.37956692  0.55368871  0.75205131     0.18360
F394        F  0.36351627  0.57922931  0.77343389    -0.19400
C395        C  0.39530728  0.66604606  0.78452704    -0.20840
C396        C  0.40705190  0.68682699  0.81217424    -0.08880
C397        C  0.43113751  0.69258206  0.82717238     0.29980
C398        C  0.43144436  0.67055209  0.83388974    -0.20840
C399        C  0.41032539  0.64417383  0.81881860    -0.08890
C400        C  0.39882702  0.64628173  0.78593308     0.29990
F401        F  0.38674765  0.62693337  0.75887035    -0.19410
H402        H  0.38490503  0.66515824  0.76033040     0.18350
H403        H  0.44899829  0.67484074  0.84750638     0.18360
F404        F  0.45444830  0.71895907  0.83246284    -0.19400
C405        C  0.42464090  0.75299906  0.83847426    -0.20840
C406        C  0.41175598  0.73029226  0.81380580    -0.08880
C407        C  0.41539296  0.73609598  0.77458412     0.29980
C408        C  0.42962819  0.76280976  0.76079647    -0.20840
C409        C  0.44181014  0.78510236  0.78533060    -0.08890
C410        C  0.43948780  0.77996872  0.82449154     0.29990
F411        F  0.45213815  0.80096256  0.84940683    -0.19410
H412        H  0.42361694  0.75043483  0.86883286     0.18350
H413        H  0.43104440  0.76585240  0.73042663     0.18360
F414        F  0.40595530  0.71616863  0.74897299    -0.19400
C415        C  0.32070178  0.64138083  0.78872714    -0.20840
C416        C  0.30675577  0.63613971  0.82350316    -0.08880
C417        C  0.31623581  0.66076308  0.84090781     0.29980
C418        C  0.34383740  0.68509408  0.83475205    -0.20840
C419        C  0.36249770  0.68418201  0.81456343    -0.08890
C420        C  0.34842965  0.66542139  0.78418590     0.29990
F421        F  0.35756320  0.67344489  0.74804045    -0.19410
H422        H  0.31194375  0.62593422  0.76721954     0.18350
H423        H  0.34987506  0.70454836  0.84304509     0.18360
F424        F  0.29792059  0.66290857  0.85527113    -0.19400
C425        C  0.34089609  0.62709439  0.85355184    -0.20840
C426        C  0.31560539  0.60466255  0.83904706    -0.08880
C427        C  0.31298187  0.58152753  0.82811359     0.29980
C428        C  0.33652587  0.58319310  0.82896549    -0.20840
C429        C  0.36249394  0.60788210  0.84032935    -0.08890
C430        C  0.36250707  0.62812366  0.85554444     0.29990
F431        F  0.38428575  0.64984096  0.87370634    -0.19410
H432        H  0.34364279  0.64400724  0.86661849     0.18350
H433        H  0.33376149  0.56486080  0.82331263     0.18360
F434        F  0.28807988  0.55705603  0.82015149    -0.19400
C435        C  0.31991655  0.63703512  0.94214726    -0.20840
C436        C  0.33341184  0.62582470  0.94434999    -0.08880
C437        C  0.31398008  0.59718197  0.93599571     0.29980
C438        C  0.29300750  0.58756929  0.90923677    -0.20840
C439        C  0.29213837  0.60683490  0.89020860    -0.08890
C440        C  0.30078560  0.62900442  0.91327647     0.29990
F441        F  0.28661103  0.63825427  0.91395234    -0.19410
H442        H  0.32336874  0.65114793  0.96309271     0.18350
H443        H  0.28102598  0.56670192  0.89910166     0.18360
F444        F  0.30988128  0.57801438  0.95963142    -0.19400
C445        C  0.40650143  0.64499106  0.94068623    -0.20840
C446        C  0.37807197  0.62950592  0.94948278    -0.08880
C447        C  0.36339363  0.60144950  0.94097205     0.29980
C448        C  0.37119408  0.59444940  0.90917063    -0.20840
C449        C  0.39447079  0.61571357  0.88714768    -0.08890
C450        C  0.41473371  0.63879461  0.90864081     0.29990
F451        F  0.44187068  0.65279632  0.90217296    -0.19410
H452        H  0.42248646  0.66151287  0.95788948     0.18350
H453        H  0.35740524  0.57345902  0.89919572     0.18360
F454        F  0.34835268  0.58198838  0.96838037    -0.19400
C455        C  0.37166790  0.68701252  0.93564292    -0.20840
C456        C  0.38263409  0.67418019  0.94574511    -0.08880
C457        C  0.40975027  0.69031538  0.93070179     0.29980
C458        C  0.41548450  0.70273716  0.89476346    -0.20840
C459        C  0.39433756  0.69906374  0.87375164    -0.08890
C460        C  0.37716787  0.69928719  0.89941958     0.29990
F461        F  0.37325981  0.71781403  0.89532448    -0.19410
H462        H  0.36145942  0.68998894  0.95659598     0.18350
H463        H  0.43666499  0.71769540  0.88652012     0.18360
F464        F  0.43156265  0.70160829  0.95396915    -0.19400
C465        C  0.79581839  0.38889081  0.78168600    -0.20840
C466        C  0.81409944  0.41702676  0.78913632    -0.08880
C467        C  0.80527456  0.42834951  0.81096621     0.29980
C468        C  0.77847059  0.41142992  0.82579786    -0.20840
C469        C  0.75976234  0.38270646  0.81960467    -0.08890
C470        C  0.76905644  0.37179085  0.79649861     0.29990
F471        F  0.75311597  0.34475916  0.78796925    -0.19410
H472        H  0.80236774  0.38005396  0.76421951     0.18350
H473        H  0.77230781  0.42101917  0.84201637     0.18360
F474        F  0.82254028  0.45579854  0.81778250    -0.19400
C475        C  0.21528035  0.56214555  0.82760849    -0.20840
C476        C  0.21300424  0.55432665  0.78983698    -0.08880
C477        C  0.23672755  0.56131999  0.77203669     0.29980
C478        C  0.26189437  0.57659213  0.79109491    -0.20840
C479        C  0.26465622  0.58564485  0.82842337    -0.08890
C480        C  0.24049090  0.57776832  0.84646904     0.29990
F481        F  0.24093713  0.58616430  0.88179775    -0.19410
H482        H  0.19767044  0.55703891  0.84269455     0.18350
H483        H  0.27946044  0.58181763  0.77582548     0.18360
F484        F  0.23636117  0.55454657  0.73568236    -0.19400
C485        C  0.41362802  0.68082304  0.27394437    -0.20840
C486        C  0.39457760  0.68170554  0.25460287    -0.08880
C487        C  0.37316331  0.65778916  0.23572209     0.29980
C488        C  0.37129072  0.63570094  0.23336852    -0.20840
C489        C  0.38878093  0.63320444  0.25259774    -0.08890
C490        C  0.40943432  0.65587215  0.27558620     0.29990
F491        F  0.42353166  0.65376084  0.30197032    -0.19410
H492        H  0.43125714  0.69864453  0.28805976     0.18350
H493        H  0.35414034  0.61894342  0.21714974     0.18360
F494        F  0.35404521  0.65611563  0.21630203    -0.19400
C495        C  0.42652017  0.75842752  0.24759023    -0.20840
C496        C  0.41664250  0.73408618  0.26767966    -0.08880
C497        C  0.42471525  0.73736200  0.30613430     0.29980
C498        C  0.44020278  0.76311939  0.32343669    -0.20840
C499        C  0.44854830  0.78672494  0.30353500    -0.08890
C500        C  0.44242069  0.78415084  0.26477922     0.29990
F501        F  0.45120249  0.80626249  0.24305390    -0.19410
H502        H  0.42106978  0.75789738  0.21841568     0.18350
H503        H  0.44486925  0.76415947  0.35314641     0.18360
F504        F  0.41763558  0.71609454  0.32817977    -0.19400
C505        C  0.30139323  0.56638443  0.26182871    -0.20840
C506        C  0.30775356  0.58996956  0.27875354    -0.08880
C507        C  0.32796111  0.59964595  0.30711275     0.29980
C508        C  0.34821168  0.59684675  0.30250119    -0.20840
C509        C  0.34946794  0.58612851  0.26827893    -0.08890
C510        C  0.32307652  0.56632188  0.25211527     0.29990
F511        F  0.31691860  0.54513678  0.23164405    -0.19410
H512        H  0.28074964  0.54975627  0.25259949     0.18350
H513        H  0.36502591  0.60683181  0.32246436     0.18360
F514        F  0.32246988  0.60155464  0.34323114    -0.19400
C515        C  0.31697779  0.65787770  0.25405987    -0.20840
C516        C  0.31684394  0.63788921  0.27321696    -0.08880
C517        C  0.33420881  0.64996515  0.30513732     0.29980
C518        C  0.35831418  0.67773810  0.30339067    -0.20840
C519        C  0.36544080  0.69325954  0.26934741    -0.08890
C520        C  0.34185104  0.68543839  0.25027220     0.29990
F521        F  0.34155418  0.70468571  0.23396784    -0.19410
H522        H  0.29838831  0.65268585  0.24306871     0.18350
H523        H  0.37189366  0.68555694  0.32712352     0.18360
F524        F  0.32440676  0.63894576  0.34006314    -0.19400
C525        C  0.33722322  0.62769381  0.02546803    -0.20840
C526        C  0.36262163  0.64262635  0.00555184    -0.08880
C527        C  0.38664722  0.65715576  0.02786853     0.29980
C528        C  0.38525691  0.65630340  0.06729372    -0.20840
C529        C  0.36007476  0.64141451  0.08694137    -0.08890
C530        C  0.33584625  0.62729808  0.06505186     0.29990
F531        F  0.31046541  0.61270061  0.08091766    -0.19410
H532        H  0.31773016  0.61577160  0.01104194     0.18350
H533        H  0.40439099  0.66756591  0.08271207     0.18360
F534        F  0.41199445  0.67245611  0.01231791    -0.19400
C535        C  0.31690561  0.63426177  0.15853467    -0.20840
C536        C  0.33094149  0.62420969  0.14976366    -0.08880
C537        C  0.31408643  0.59621629  0.16026797     0.29980
C538        C  0.29952106  0.58744558  0.19432018    -0.20840
C539        C  0.29823098  0.60533474  0.21573922    -0.08890
C540        C  0.29931603  0.62370689  0.19073448     0.29990
F541        F  0.28011805  0.62685179  0.19276695    -0.19410
H542        H  0.31699300  0.64764728  0.13963225     0.18350
H543        H  0.28534877  0.56558032  0.19868901     0.18360
F544        F  0.30441451  0.57679216  0.13362188    -0.19400
C545        C  0.35894074  0.58538634  0.17794806    -0.20840
C546        C  0.38123377  0.60274408  0.20268960    -0.08880
C547        C  0.40448076  0.62694287  0.18385972     0.29980
C548        C  0.40009411  0.63876189  0.15422946    -0.20840
C549        C  0.37312701  0.62592895  0.14195344    -0.08890
C550        C  0.35698893  0.59694860  0.14488574     0.29990
F551        F  0.34243092  0.58076592  0.11478500    -0.19410
H552        H  0.34543709  0.56338072  0.18148122     0.18350
H553        H  0.41780176  0.65556273  0.13868281     0.18360
F554        F  0.43030267  0.64155320  0.19758838    -0.19400
C555        C  0.40722862  0.68920866  0.15775299    -0.20840
C556        C  0.37980431  0.67272483  0.14407678    -0.08880
C557        C  0.36975969  0.68723331  0.14666792     0.29980
C558        C  0.37643380  0.70373736  0.17877445    -0.20840
C559        C  0.39664468  0.70919872  0.20426165    -0.08890
C560        C  0.41620767  0.70844262  0.18659955     0.29990
F561        F  0.44101526  0.72068835  0.20291491    -0.19410
H562        H  0.42265876  0.68947589  0.14522836     0.18350
H563        H  0.36676723  0.71260031  0.18244416     0.18360
F564        F  0.35530111  0.68676660  0.11785219    -0.19400
C565        C  0.21799674  0.55181290  0.27575027    -0.20840
C566        C  0.21398431  0.56277237  0.30618338    -0.08880
C567        C  0.23646257  0.58808163  0.32081759     0.29980
C568        C  0.26274638  0.60201369  0.30569110    -0.20840
C569        C  0.26771733  0.59103556  0.27560675    -0.08890
C570        C  0.24442821  0.56545998  0.26081656     0.29990
F571        F  0.24658708  0.55324434  0.23182420    -0.19410
H572        H  0.20069853  0.53211694  0.26428905     0.18350
H573        H  0.27901854  0.62130238  0.31868362     0.18360
F574        F  0.23300051  0.59940787  0.34996666    -0.19400
C575        C  0.42436927  0.61521105  0.26903951    -0.20840
C576        C  0.39546031  0.59589765  0.26465267    -0.08880
C577        C  0.38251784  0.56770419  0.27037447     0.29980
C578        C  0.39724098  0.55981388  0.28392544    -0.20840
C579        C  0.42531630  0.57953686  0.29120876    -0.08890
C580        C  0.43898356  0.60729126  0.28333874     0.29990
F581        F  0.46647500  0.62672483  0.28943789    -0.19410
H582        H  0.43620937  0.63649616  0.26101122     0.18350
H583        H  0.38653212  0.53820159  0.28949825     0.18360
F584        F  0.35558474  0.54735839  0.26237681    -0.19400
C585        C  0.60124464  0.36267970  0.27269473    -0.20840
C586        C  0.62952167  0.37717232  0.26540379    -0.08880
C587        C  0.64776970  0.40623036  0.26891862     0.29980
C588        C  0.63847471  0.41936439  0.28364550    -0.20840
C589        C  0.61076090  0.40427846  0.29317459    -0.08890
C590        C  0.59200604  0.37595714  0.28679936     0.29990
F591        F  0.56486454  0.36100924  0.29522308    -0.19410
H592        H  0.58600534  0.34080135  0.26788108     0.18350
H593        H  0.65300616  0.44144261  0.28773213     0.18360
F594        F  0.67436068  0.42247681  0.25742279    -0.19400
C595        C  0.63084301  0.30564600  0.30703056    -0.20840
C596        C  0.61782489  0.28475670  0.27914832    -0.08880
C597        C  0.59597855  0.28178888  0.26093184     0.29980
C598        C  0.59732296  0.30509736  0.25703663    -0.20840
C599        C  0.62000026  0.33111201  0.27186310    -0.08890
C600        C  0.63064819  0.32779564  0.30459487     0.29990
F601        F  0.64528964  0.34830170  0.33020908    -0.19410
H602        H  0.64158366  0.30609164  0.33065559     0.18350
H603        H  0.58104797  0.30253130  0.24207096     0.18360
F604        F  0.57702908  0.25890129  0.24065083    -0.19400
C605        C  0.61113828  0.22038043  0.25530905    -0.20840
C606        C  0.60952319  0.23885263  0.27409110    -0.08880
C607        C  0.59296190  0.22906573  0.30727325     0.29980
C608        C  0.57903788  0.20234177  0.32064358    -0.20840
C609        C  0.58179785  0.18453158  0.30302212    -0.08890
C610        C  0.59759840  0.19362809  0.26953696     0.29990
F611        F  0.60127767  0.17740917  0.25154291    -0.19410
H612        H  0.62370680  0.22688931  0.23015698     0.18350
H613        H  0.56664145  0.19602034  0.34599561     0.18360
F614        F  0.59111898  0.24535088  0.32892627    -0.19400
C615        C  0.68488840  0.34962569  0.26470465    -0.20840
C616        C  0.71092251  0.37031718  0.27648210    -0.08880
C617        C  0.71442146  0.39415754  0.28842780     0.29980
C618        C  0.69108594  0.39373967  0.28439492    -0.20840
C619        C  0.66895733  0.37385815  0.25906989    -0.08890
C620        C  0.67277617  0.35701149  0.24443582     0.29990
F621        F  0.67417102  0.35605121  0.20773434    -0.19410
H622        H  0.68042449  0.33181597  0.25570282     0.18350
H623        H  0.69106456  0.40829231  0.29986769     0.18360
F624        F  0.73843564  0.41629844  0.30347402    -0.19400
C625        C  0.70738980  0.31212745  0.25131624    -0.20840
C626        C  0.71630827  0.33363474  0.27664435    -0.08880
C627        C  0.69986329  0.32242093  0.31081346     0.29980
C628        C  0.67211737  0.29700915  0.31041845    -0.20840
C629        C  0.65975363  0.28295057  0.27619562    -0.08890
C630        C  0.67960457  0.28718054  0.25091374     0.29990
F631        F  0.67186788  0.26863198  0.22356493    -0.19410
H632        H  0.72126769  0.31397836  0.23168336     0.18350
H633        H  0.66017786  0.28920518  0.33630950     0.18360
F634        F  0.70828403  0.33741606  0.34267920    -0.19400
C635        C  0.76312800  0.39010740  0.31804439    -0.20840
C636        C  0.76008679  0.38543745  0.27879992    -0.08880
C637        C  0.78459388  0.39839743  0.25713567     0.29980
C638        C  0.81027875  0.41365198  0.27468267    -0.20840
C639        C  0.81271016  0.41674575  0.31401604    -0.08890
C640        C  0.78874406  0.40503438  0.33555343     0.29990
F641        F  0.78956098  0.40693145  0.37379888    -0.19410
H642        H  0.74565812  0.38248780  0.33569287     0.18350
H643        H  0.82839569  0.42300930  0.25715126     0.18360
F644        F  0.78452897  0.39654584  0.21901667    -0.19400
C645        C  0.69597747  0.34843583  0.02528185    -0.20840
C646        C  0.67118471  0.33337357  0.00458882    -0.08880
C647        C  0.64697404  0.32179287  0.02577443     0.29980
C648        C  0.64745917  0.32290288  0.06546496    -0.20840
C649        C  0.67216945  0.33733431  0.08612808    -0.08890
C650        C  0.69677115  0.35136161  0.06436894     0.29990
F651        F  0.72232620  0.36846025  0.07944806    -0.19410
H652        H  0.71569811  0.35856456  0.01184272     0.18350
H653        H  0.62811255  0.31288583  0.07975625     0.18360
F654        F  0.62253469  0.30948914  0.00877976    -0.19400
C655        C  0.66743836  0.31205716  0.18533164    -0.20840
C656        C  0.65721894  0.30924033  0.15010846    -0.08880
C657        C  0.63166759  0.28033933  0.14662452     0.29980
C658        C  0.62000244  0.26212488  0.18144662    -0.20840
C659        C  0.63139389  0.27518967  0.21822131    -0.08890
C660        C  0.64818894  0.30229504  0.21268438     0.29990
F661        F  0.63367525  0.31066884  0.21073569    -0.19410
H662        H  0.67914741  0.30513996  0.18658485     0.18350
H663        H  0.60270503  0.24031948  0.17966056     0.18360
F664        F  0.61849463  0.27041391  0.11308826    -0.19400
C665        C  0.71791830  0.34947612  0.15235690    -0.20840
C666        C  0.70332043  0.35944458  0.14666921    -0.08880
C667        C  0.71704430  0.38491097  0.16581208     0.29980
C668        C  0.72994572  0.38916981  0.20112280    -0.20840
C669        C  0.73122032  0.36920745  0.21652824    -0.08890
C670        C  0.73148556  0.35402542  0.18737775     0.29990
F671        F  0.74724673  0.34659076  0.19019271    -0.19410
H672        H  0.71446174  0.33415401  0.13356729     0.18350
H673        H  0.73705587  0.40700645  0.21737625     0.18360
F674        F  0.72164712  0.40685873  0.14920451    -0.19400
C675        C  0.61662101  0.33627382  0.18353988    -0.20840
C676        C  0.63572063  0.36044585  0.20452727    -0.08880
C677        C  0.65785706  0.38206553  0.18089397     0.29980
C678        C  0.66552112  0.37557685  0.14782457    -0.20840
C679        C  0.65374157  0.34801322  0.14096259    -0.08890
C680        C  0.62568106  0.32937002  0.15307593     0.29990
F681        F  0.60750030  0.30366923  0.13904477    -0.19410
H682        H  0.59524829  0.32198477  0.19099893     0.18350
H683        H  0.68150292  0.39182549  0.12944367     0.18360
F684        F  0.67436877  0.40861437  0.19185291    -0.19400
loop_ 
_geom_bond_atom_site_label_1 
_geom_bond_atom_site_label_2 
_geom_bond_distance 
_geom_bond_site_symmetry_2 
_ccdc_geom_bond_type 
C1          C649   1.556       .  S
C1          C656   1.618       .  S
C1          C666   1.655       .  S
C1          C679   1.618       .  S
C2          C616   1.587       .  S
C2          C626   1.642       .  S
C2          C636   1.543       .  S
C2          C669   1.624       .  S
C3          C596   1.628       .  S
C3          C606   1.537       .  S
C3          C629   1.623       .  S
C3          C659   1.594       .  S
C4          C586   1.534       .  S
C4          C599   1.635       .  S
C4          C619   1.592       .  S
C4          C676   1.622       .  S
N5            N6   1.322       .  A
N5            C9   1.352       .  A
N5          Cu13   2.086       .  S
N6            C7   1.335       .  A
N6          Cu12   2.058       .  S
C7            C8   1.378       .  A
C7           H10   1.082       .  S
C8            C9   1.388       .  A
C8           C32   1.468       .  S
C9           H11   1.082       .  S
Cu12         N15   2.061       .  S
Cu13         N23   2.088       .  S
Cu14         N16   2.056       .  S
Cu14         N22   2.058       .  S
N15          N16   1.317       .  A
N15          C19   1.343       .  A
N16          C17   1.345       .  A
C17          C18   1.384       .  A
C17          H20   1.082       .  S
C18          C19   1.383       .  A
C18         C294   1.468       .  S
C19          H21   1.082       .  S
N22          N23   1.325       .  A
N22          C26   1.339       .  A
N23          C24   1.348       .  A
C24          C25   1.384       .  A
C24          H27   1.082       .  S
C25          C26   1.373       .  A
C25         C579   1.462       .  S
C26          H28   1.082       .  S
N29          N30   1.321       .  A
N29          C33   1.351       .  A
N29         Cu37   2.080       .  S
N30          C31   1.336       .  A
N30         Cu36   2.060       .  S
C31          C32   1.381       .  A
C31          H34   1.082       .  S
C32          C33   1.388       .  A
C33          H35   1.082       .  S
Cu36         N39   2.063       .  S
Cu37         N47   2.082       .  S
Cu38         N40   2.065       .  S
Cu38         N46   2.066       .  S
N39          N40   1.319       .  A
N39          C43   1.342       .  A
N40          C41   1.347       .  A
C41          C42   1.385       .  A
C41          H44   1.082       .  S
C42          C43   1.382       .  A
C42         C270   1.470       .  S
C43          H45   1.082       .  S
N46          N47   1.325       .  A
N46          C50   1.341       .  A
N47          C48   1.347       .  A
C48          C49   1.381       .  A
C48          H51   1.082       .  S
C49          C50   1.375       .  A
C49         C589   1.462       .  S
C50          H52   1.082       .  S
N53          N54   1.323       .  A
N53          C57   1.349       .  A
N53         Cu61   2.082       .  S
N54          C55   1.340       .  A
N54         Cu60   2.068       .  S
C55          C56   1.380       .  A
C55          H58   1.082       .  S
C56          C57   1.386       .  A
C56          C80   1.465       .  S
C57          H59   1.082       .  S
Cu60         N63   2.070       .  S
Cu61         N71   2.081       .  S
Cu62         N64   2.064       .  S
Cu62         N70   2.065       .  S
N63          N64   1.320       .  A
N63          C67   1.346       .  A
N64          C65   1.343       .  A
C65          C66   1.383       .  A
C65          H68   1.082       .  S
C66          C67   1.385       .  A
C66         C166   1.472       .  S
C67          H69   1.082       .  S
N70          N71   1.323       .  A
N70          C74   1.341       .  A
N71          C72   1.348       .  A
C72          C73   1.383       .  A
C72          H75   1.082       .  S
C73          C74   1.378       .  A
C73         C566   1.468       .  S
C74          H76   1.082       .  S
N77          N78   1.323       .  A
N77          C81   1.349       .  A
N77         Cu85   2.085       .  S
N78          C79   1.340   1_655  A
N78         Cu84   2.069       .  S
C79          C80   1.380       .  A
C79          H82   1.082       .  S
C80          C81   1.385   1_455  A
C81          H83   1.082       .  S
Cu84         N87   2.070       .  S
Cu85         N95   2.085       .  S
Cu86         N88   2.057       .  S
Cu86         N94   2.058       .  S
N87          N88   1.319       .  A
N87          C91   1.346       .  A
N88          C89   1.342       .  A
C89          C90   1.382       .  A
C89          H92   1.082       .  S
C90          C91   1.385       .  A
C90         C190   1.470       .  S
C91          H93   1.082       .  S
N94          N95   1.321       .  A
N94          C98   1.340       .  A
N95          C96   1.347       .  A
C96          C97   1.391       .  A
C96          H99   1.082       .  S
C97          C98   1.384       .  A
C97         C639   1.486       .  S
C98         H100   1.080       .  S
C101        C529   1.539       .  S
C101        C536   1.612       .  S
C101        C549   1.621       .  S
C101        C556   1.617       .  S
C102        C506   1.626       .  S
C102        C516   1.615       .  S
C102        C539   1.616       .  S
C102        C569   1.551       .  S
C103        C486   1.564       .  S
C103        C496   1.556       .  S
C103        C519   1.587       .  S
C103        C559   1.599       .  S
C104        C489   1.565       .  S
C104        C509   1.601       .  S
C104        C546   1.591       .  S
C104        C576   1.539       .  S
N105        N106   1.324       .  A
N105        C109   1.349       .  A
N105       Cu113   2.088       .  S
N106        C107   1.340   1_545  A
N106       Cu112   2.071       .  S
C107        C108   1.380       .  A
C107        H110   1.082       .  S
C108        C109   1.386   1_565  A
C108        C132   1.465       .  S
C109        H111   1.082       .  S
Cu112       N115   2.072       .  S
Cu113       N123   2.087       .  S
Cu114       N116   2.062       .  S
Cu114       N122   2.063       .  S
N115        N116   1.319       .  A
N115        C119   1.347       .  A
N116        C117   1.343       .  A
C117        C118   1.383       .  A
C117        H120   1.082       .  S
C118        C119   1.386       .  A
C118        C218   1.473       .  S
C119        H121   1.082       .  S
N122        N123   1.321       .  A
N122        C126   1.337       .  A
N123        C124   1.351       .  A
C124        C125   1.392       .  A
C124        H127   1.081       .  S
C125        C126   1.385       .  A
C125        C609   1.489       .  S
C126        H128   1.081       .  S
N129        N130   1.322       .  A
N129        C133   1.349       .  A
N129       Cu137   2.084       .  S
N130        C131   1.339       .  A
N130       Cu136   2.062       .  S
C131        C132   1.380       .  A
C131        H134   1.082       .  S
C132        C133   1.387       .  A
C133        H135   1.082       .  S
Cu136       N139   2.063       .  S
Cu137       N147   2.085       .  S
Cu138       N140   2.076       .  S
Cu138       N146   2.076       .  S
N139        N140   1.321       .  A
N139        C143   1.345       .  A
N140        C141   1.345       .  A
C141        C142   1.385       .  A
C141        H144   1.082       .  S
C142        C143   1.382       .  A
C142        C242   1.472       .  S
C143        H145   1.082       .  S
N146        N147   1.321       .  A
N146        C150   1.344       .  A
N147        C148   1.345       .  A
C148        C149   1.393       .  A
C148        H151   1.079       .  S
C149        C150   1.390       .  A
C149        C499   1.496       .  S
C150        H152   1.081       .  S
N153        N154   1.323       .  A
N153        C157   1.350       .  A
N153       Cu161   2.089       .  S
N154        C155   1.340       .  A
N154       Cu160   2.069       .  S
C155        C156   1.380       .  A
C155        H158   1.082       .  S
C156        C157   1.387       .  A
C156        C180   1.467       .  S
C157        H159   1.082       .  S
Cu160       N163   2.070       .  S
Cu161       N171   2.090       .  S
Cu162       N164   2.067       .  S
Cu162       N170   2.068       .  S
N163        N164   1.320       .  A
N163        C167   1.346       .  A
N164        C165   1.344       .  A
C165        C166   1.383       .  A
C165        H168   1.082       .  S
C166        C167   1.384       .  A
C167        H169   1.082       .  S
N170        N171   1.320       .  A
N170        C174   1.343       .  A
N171        C172   1.346       .  A
C172        C173   1.395       .  A
C172        H175   1.081       .  S
C173        C174   1.390       .  A
C173        C476   1.498       .  S
C174        H176   1.078       .  S
N177        N178   1.322       .  A
N177        C181   1.350       .  A
N177       Cu185   2.091       .  S
N178        C179   1.340   1_655  A
N178       Cu184   2.064       .  S
C179        C180   1.379       .  A
C179        H182   1.082       .  S
C180        C181   1.388   1_455  A
C181        H183   1.082       .  S
Cu184       N187   2.065       .  S
Cu185       N195   2.091       .  S
Cu186       N188   2.065       .  S
Cu186       N194   2.066       .  S
N187        N188   1.320       .  A
N187        C191   1.345       .  A
N188        C189   1.343       .  A
C189        C190   1.384       .  A
C189        H192   1.082       .  S
C190        C191   1.384       .  A
C191        H193   1.082       .  S
N194        N195   1.324       .  A
N194        C198   1.343       .  A
N195        C196   1.348       .  A
C196        C197   1.384       .  A
C196        H199   1.082       .  S
C197        C198   1.377       .  A
C197        C466   1.468       .  S
C198        H200   1.082       .  S
C201        C436   1.623       .  S
C201        C446   1.621       .  S
C201        C456   1.622       .  S
C201        C526   1.556   1_556  S
C202        C416   1.594       .  S
C202        C426   1.557       .  S
C202        C439   1.587       .  S
C202        C479   1.545       .  S
C203        C396   1.626       .  S
C203        C406   1.543       .  S
C203        C419   1.623       .  S
C203        C459   1.614       .  S
C204        C386   1.549       .  S
C204        C399   1.605       .  S
C204        C429   1.563       .  S
C204        C449   1.588       .  S
N205        N206   1.322       .  A
N205        C209   1.350       .  A
N205       Cu213   2.086       .  S
N206        C207   1.340   1_545  A
N206       Cu212   2.067       .  S
C207        C208   1.380       .  A
C207        H210   1.082       .  S
C208        C209   1.387   1_565  A
C208        C232   1.467       .  S
C209        H211   1.082       .  S
Cu212       N215   2.069       .  S
Cu213       N223   2.086       .  S
Cu214       N216   2.069       .  S
Cu214       N222   2.070       .  S
N215        N216   1.320       .  A
N215        C219   1.346       .  A
N216        C217   1.344       .  A
C217        C218   1.384       .  A
C217        H220   1.082       .  S
C218        C219   1.384       .  A
C219        H221   1.082       .  S
N222        N223   1.321       .  A
N222        C226   1.342       .  A
N223        C224   1.346       .  A
C224        C225   1.393       .  A
C224        H227   1.080       .  S
C225        C226   1.388       .  A
C225        C376   1.494       .  S
C226        H228   1.081       .  S
N229        N230   1.324       .  A
N229        C233   1.350       .  A
N229       Cu237   2.093       .  S
N230        C231   1.340       .  A
N230       Cu236   2.073       .  S
C231        C232   1.379       .  A
C231        H234   1.082       .  S
C232        C233   1.386       .  A
C233        H235   1.082       .  S
Cu236       N239   2.073       .  S
Cu237       N247   2.092       .  S
Cu238       N240   2.052       .  S
Cu238       N246   2.052       .  S
N239        N240   1.318       .  A
N239        C243   1.347       .  A
N240        C241   1.343       .  A
C241        C242   1.382       .  A
C241        H244   1.082       .  S
C242        C243   1.387       .  A
C243        H245   1.082       .  S
N246        N247   1.321       .  A
N246        C250   1.337       .  A
N247        C248   1.351       .  A
C248        C249   1.393       .  A
C248        H251   1.081       .  S
C249        C250   1.381       .  A
C249        C409   1.485       .  S
C250        H252   1.081       .  S
C253        C346   1.611       .  S
C253        C356   1.557       .  S
C253        C366   1.586       .  S
C253        C646   1.558   1_556  S
C254        C326   1.618       .  S
C254        C336   1.617       .  S
C254        C369   1.619       .  S
C254        C469   1.546       .  S
C255        C319   1.621       .  S
C255        C339   1.610       .  S
C255        C349   1.626       .  S
C255        C379   1.547       .  S
C256        C306   1.534       .  S
C256        C316   1.611       .  S
C256        C329   1.603       .  S
C256        C359   1.565       .  S
N257        N258   1.322       .  A
N257        C261   1.355       .  A
N257       Cu265   2.099       .  S
N258        C259   1.335       .  A
N258       Cu264   2.054       .  S
C259        C260   1.377       .  A
C259        H262   1.082       .  S
C260        C261   1.391       .  A
C260        C284   1.472       .  S
C261        H263   1.082       .  S
Cu264       N267   2.056       .  S
Cu265       N275   2.101       .  S
Cu266       N268   2.064       .  S
Cu266       N274   2.067       .  S
N267        N268   1.317       .  A
N267        C271   1.341       .  A
N268        C269   1.347       .  A
C269        C270   1.386       .  A
C269        H272   1.082       .  S
C270        C271   1.382       .  A
C271        H273   1.082       .  S
N274        N275   1.326       .  A
N274        C278   1.337       .  A
N275        C276   1.353       .  A
C276        C277   1.388       .  A
C276        H279   1.082       .  S
C277        C278   1.377       .  A
C277        C309   1.477       .  S
C278        H280   1.082       .  S
N281        N282   1.321       .  A
N281        C285   1.353       .  A
N281       Cu289   2.091       .  S
N282        C283   1.336       .  A
N282       Cu288   2.060       .  S
C283        C284   1.381       .  A
C283        H286   1.083       .  S
C284        C285   1.391       .  A
C285        H287   1.082       .  S
Cu288       N291   2.063       .  S
Cu289       N299   2.093       .  S
Cu290       N292   2.064       .  S
Cu290       N298   2.065       .  S
N291        N292   1.319       .  A
N291        C295   1.343       .  A
N292        C293   1.346       .  A
C293        C294   1.384       .  A
C293        H296   1.082       .  S
C294        C295   1.382       .  A
C295        H297   1.082       .  S
N298        N299   1.324       .  A
N298        C302   1.341       .  A
N299        C300   1.348       .  A
C300        C301   1.390       .  A
C300        H303   1.081       .  S
C301        C302   1.381       .  A
C301        C389   1.483       .  S
C302        H304   1.082       .  S
C305        C306   1.412       .  A
C305        C310   1.389       .  A
C305        H312   1.079       .  S
C306        C307   1.417       .  A
C307        C308   1.407       .  A
C307        F314   1.356       .  S
C308        C309   1.403       .  A
C308        H313   1.083       .  S
C309        C310   1.401       .  A
C310        F311   1.358       .  S
C315        C316   1.445       .  A
C315        C320   1.457       .  A
C315        H322   1.081       .  S
C316        C317   1.381       .  A
C317        C318   1.388       .  A
C317        F324   1.358       .  S
C318        C319   1.411       .  A
C318        H323   1.071       .  S
C319        C320   1.445       .  A
C320        F321   1.355       .  S
C325        C326   1.425       .  A
C325        C330   1.396       .  A
C325        H332   1.062       .  S
C326        C327   1.419       .  A
C327        C328   1.420       .  A
C327        F334   1.355       .  S
C328        C329   1.424       .  A
C328        H333   1.082       .  S
C329        C330   1.399       .  A
C330        F331   1.355       .  S
C335        C336   1.428       .  A
C335        C340   1.426       .  A
C335        H342   1.069       .  S
C336        C337   1.416       .  A
C337        C338   1.401       .  A
C337        F344   1.355       .  S
C338        C339   1.402       .  A
C338        H343   1.079       .  S
C339        C340   1.421       .  A
C340        F341   1.357       .  S
C345        C346   1.429       .  A
C345        C350   1.419       .  A
C345        H352   1.076       .  S
C346        C347   1.402       .  A
C347        C348   1.412       .  A
C347        F354   1.354       .  S
C348        C349   1.427       .  A
C348        H353   1.072       .  S
C349        C350   1.417       .  A
C350        F351   1.346       .  S
C355        C356   1.434       .  A
C355        C360   1.453       .  A
C355        H362   1.081       .  S
C356        C357   1.393       .  A
C357        C358   1.350       .  A
C357        F364   1.351       .  S
C358        C359   1.357       .  A
C358        H363   1.070       .  S
C359        C360   1.440       .  A
C360        F361   1.356       .  S
C365        C366   1.421       .  A
C365        C370   1.410       .  A
C365        H372   1.083       .  S
C366        C367   1.410       .  A
C367        C368   1.407       .  A
C367        F374   1.351       .  S
C368        C369   1.409       .  A
C368        H373   1.077       .  S
C369        C370   1.410       .  A
C370        F371   1.358       .  S
C375        C376   1.405       .  A
C375        C380   1.398       .  A
C375        H382   1.081       .  S
C376        C377   1.406       .  A
C377        C378   1.397       .  A
C377        F384   1.355       .  S
C378        C379   1.412       .  A
C378        H383   1.074       .  S
C379        C380   1.420       .  A
C380        F381   1.356       .  S
C385        C386   1.417       .  A
C385        C390   1.396       .  A
C385        H392   1.081       .  S
C386        C387   1.420       .  A
C387        C388   1.399       .  A
C387        F394   1.350       .  S
C388        C389   1.402       .  A
C388        H393   1.083       .  S
C389        C390   1.401       .  A
C390        F391   1.357       .  S
C395        C396   1.417       .  A
C395        C400   1.407       .  A
C395        H402   1.058       .  S
C396        C397   1.424       .  A
C397        C398   1.426       .  A
C397        F404   1.357       .  S
C398        C399   1.418       .  A
C398        H403   1.074       .  S
C399        C400   1.420       .  A
C400        F401   1.349       .  S
C405        C406   1.419       .  A
C405        C410   1.402       .  A
C405        H412   1.079       .  S
C406        C407   1.410       .  A
C407        C408   1.391       .  A
C407        F414   1.351       .  S
C408        C409   1.402       .  A
C408        H413   1.082       .  S
C409        C410   1.404       .  A
C410        F411   1.357       .  S
C415        C416   1.421       .  A
C415        C420   1.410       .  A
C415        H422   1.077       .  S
C416        C417   1.411       .  A
C417        C418   1.418       .  A
C417        F424   1.353       .  S
C418        C419   1.415       .  A
C418        H423   1.074       .  S
C419        C420   1.422       .  A
C420        F421   1.354       .  S
C425        C426   1.391       .  A
C425        C430   1.330       .  A
C425        H432   1.079       .  S
C426        C427   1.423       .  A
C427        C428   1.426       .  A
C427        F434   1.355       .  S
C428        C429   1.421       .  A
C428        H433   1.079       .  S
C429        C430   1.396       .  A
C430        F431   1.336       .  S
C435        C436   1.422       .  A
C435        C440   1.408       .  A
C435        H442   1.076       .  S
C436        C437   1.427       .  A
C437        C438   1.413       .  A
C437        F444   1.346       .  S
C438        C439   1.419       .  A
C438        H443   1.083       .  S
C439        C440   1.405       .  A
C440        F441   1.352       .  S
C445        C446   1.423       .  A
C445        C450   1.409       .  A
C445        H452   1.068       .  S
C446        C447   1.415       .  A
C447        C448   1.414       .  A
C447        F454   1.353       .  S
C448        C449   1.422       .  A
C448        H453   1.083       .  S
C449        C450   1.404       .  A
C450        F451   1.353       .  S
C455        C456   1.411       .  A
C455        C460   1.412       .  A
C455        H462   1.079       .  S
C456        C457   1.418       .  A
C457        C458   1.405       .  A
C457        F464   1.355       .  S
C458        C459   1.414       .  A
C458        H463   1.069       .  S
C459        C460   1.425       .  A
C460        F461   1.353       .  S
C465        C466   1.394       .  A
C465        C470   1.397       .  A
C465        H472   1.084       .  S
C466        C467   1.397       .  A
C467        C468   1.399       .  A
C467        F474   1.357       .  S
C468        C469   1.414       .  A
C468        H473   1.079       .  S
C469        C470   1.425       .  A
C470        F471   1.353       .  S
C475        C476   1.403       .  A
C475        C480   1.397       .  A
C475        H482   1.081       .  S
C476        C477   1.411       .  A
C477        C478   1.400       .  A
C477        F484   1.354       .  S
C478        C479   1.409       .  A
C478        H483   1.079       .  S
C479        C480   1.419       .  A
C480        F481   1.356       .  S
C485        C486   1.418       .  A
C485        C490   1.426       .  A
C485        H492   1.077       .  S
C486        C487   1.399       .  A
C487        C488   1.330       .  A
C487        F494   1.335       .  S
C488        C489   1.391       .  A
C488        H493   1.079       .  S
C489        C490   1.429       .  A
C490        F491   1.353       .  S
C495        C496   1.418       .  A
C495        C500   1.396       .  A
C495        H502   1.080       .  S
C496        C497   1.420       .  A
C497        C498   1.401       .  A
C497        F504   1.351       .  S
C498        C499   1.404       .  A
C498        H503   1.081       .  S
C499        C500   1.405       .  A
C500        F501   1.355       .  S
C505        C506   1.414       .  A
C505        C510   1.419       .  A
C505        H512   1.078       .  S
C506        C507   1.421       .  A
C507        C508   1.414       .  A
C507        F514   1.350       .  S
C508        C509   1.421       .  A
C508        H513   1.083       .  S
C509        C510   1.418       .  A
C510        F511   1.351       .  S
C515        C516   1.424       .  A
C515        C520   1.417       .  A
C515        H522   1.072       .  S
C516        C517   1.414       .  A
C517        C518   1.406       .  A
C517        F524   1.350       .  S
C518        C519   1.422       .  A
C518        H523   1.071       .  S
C519        C520   1.409       .  A
C520        F521   1.354       .  S
C525        C526   1.418       .  A
C525        C530   1.400       .  A
C525        H532   1.078       .  S
C526        C527   1.413       .  A
C527        C528   1.394       .  A
C527        F534   1.345       .  S
C528        C529   1.404       .  A
C528        H533   1.081       .  S
C529        C530   1.414       .  A
C530        F531   1.354       .  S
C535        C536   1.424       .  A
C535        C540   1.419       .  A
C535        H542   1.071       .  S
C536        C537   1.406       .  A
C537        C538   1.392       .  A
C537        F544   1.353       .  S
C538        C539   1.416       .  A
C538        H543   1.070       .  S
C539        C540   1.419       .  A
C540        F541   1.355       .  S
C545        C546   1.410       .  A
C545        C550   1.419       .  A
C545        H552   1.075       .  S
C546        C547   1.428       .  A
C547        C548   1.408       .  A
C547        F554   1.352       .  S
C548        C549   1.410       .  A
C548        H553   1.071       .  S
C549        C550   1.418       .  A
C550        F551   1.356       .  S
C555        C556   1.421       .  A
C555        C560   1.408       .  A
C555        H562   1.064       .  S
C556        C557   1.419       .  A
C557        C558   1.420       .  A
C557        F564   1.356       .  S
C558        C559   1.415       .  A
C558        H563   1.073       .  S
C559        C560   1.417       .  A
C560        F561   1.358       .  S
C565        C566   1.396       .  A
C565        C570   1.400       .  A
C565        H572   1.083       .  S
C566        C567   1.395       .  A
C567        C568   1.393       .  A
C567        F574   1.358       .  S
C568        C569   1.419       .  A
C568        H573   1.076       .  S
C569        C570   1.421       .  A
C570        F571   1.350       .  S
C575        C576   1.413       .  A
C575        C580   1.398       .  A
C575        H582   1.074       .  S
C576        C577   1.419       .  A
C577        C578   1.393       .  A
C577        F584   1.353       .  S
C578        C579   1.393       .  A
C578        H583   1.084       .  S
C579        C580   1.397       .  A
C580        F581   1.358       .  S
C585        C586   1.414       .  A
C585        C590   1.394       .  A
C585        H592   1.080       .  S
C586        C587   1.418       .  A
C587        C588   1.397       .  A
C587        F594   1.351       .  S
C588        C589   1.395       .  A
C588        H593   1.083       .  S
C589        C590   1.396       .  A
C590        F591   1.358       .  S
C595        C596   1.423       .  A
C595        C600   1.413       .  A
C595        H602   1.065       .  S
C596        C597   1.425       .  A
C597        C598   1.429       .  A
C597        F604   1.356       .  S
C598        C599   1.424       .  A
C598        H603   1.074       .  S
C599        C600   1.418       .  A
C600        F601   1.357       .  S
C605        C606   1.412       .  A
C605        C610   1.405       .  A
C605        H612   1.080       .  S
C606        C607   1.418       .  A
C607        C608   1.390       .  A
C607        F614   1.356       .  S
C608        C609   1.401       .  A
C608        H613   1.081       .  S
C609        C610   1.407       .  A
C610        F611   1.356       .  S
C615        C616   1.357       .  A
C615        C620   1.331       .  A
C615        H622   1.026       .  S
C616        C617   1.447       .  A
C617        C618   1.468       .  A
C617        F624   1.355       .  S
C618        C619   1.450       .  A
C618        H623   1.078       .  S
C619        C620   1.346       .  A
C620        F621   1.305       .  S
C625        C626   1.419       .  A
C625        C630   1.421       .  A
C625        H632   1.066       .  S
C626        C627   1.443       .  A
C627        C628   1.430       .  A
C627        F634   1.351       .  S
C628        C629   1.412       .  A
C628        H633   1.079       .  S
C629        C630   1.420       .  A
C630        F631   1.356       .  S
C635        C636   1.408       .  A
C635        C640   1.395       .  A
C635        H642   1.075       .  S
C636        C637   1.422       .  A
C637        C638   1.398       .  A
C637        F644   1.353       .  S
C638        C639   1.400       .  A
C638        H643   1.083       .  S
C639        C640   1.406       .  A
C640        F641   1.356       .  S
C645        C646   1.413       .  A
C645        C650   1.392       .  A
C645        H652   1.078       .  S
C646        C647   1.413       .  A
C647        C648   1.404       .  A
C647        F654   1.349       .  S
C648        C649   1.411       .  A
C648        H653   1.075       .  S
C649        C650   1.421       .  A
C650        F651   1.354       .  S
C655        C656   1.361       .  A
C655        C660   1.351       .  A
C655        H662   1.078       .  S
C656        C657   1.477       .  A
C657        C658   1.505       .  A
C657        F664   1.354       .  S
C658        C659   1.465       .  A
C658        H663   1.081       .  S
C659        C660   1.328       .  A
C660        F661   1.326       .  S
C665        C666   1.429       .  A
C665        C670   1.428       .  A
C665        H672   1.083       .  S
C666        C667   1.427       .  A
C667        C668   1.420       .  A
C667        F674   1.351       .  S
C668        C669   1.421       .  A
C668        H673   1.082       .  S
C669        C670   1.425       .  A
C670        F671   1.354       .  S
C675        C676   1.414       .  A
C675        C680   1.420       .  A
C675        H682   1.069       .  S
C676        C677   1.431       .  A
C677        C678   1.428       .  A
C677        F684   1.351       .  S
C678        C679   1.414       .  A
C678        H683   1.074       .  S
C679        C680   1.425       .  A
C680        F681   1.353       .  S
