geometry optimzed in LAMMPS
_audit_creation_date              2020-12-01 
_audit_creation_method            'lammps2cif' 
_symmetry_space_group_name_H-M    'P1' 
_symmetry_Int_Tables_number       1 
_symmetry_cell_setting            triclinic 
loop_ 
_symmetry_equiv_pos_as_xyz 
  x,y,z 
_cell_length_a                    64.08943857 
_cell_length_b                    64.34599922694522 
_cell_length_c                    44.12637143594529 
_cell_angle_alpha                 80.20883006880268 
_cell_angle_beta                  93.28851841691957 
_cell_angle_gamma                 121.31105489299796 
loop_ 
_atom_site_label 
_atom_site_type_symbol 
_atom_site_fract_x 
_atom_site_fract_y 
_atom_site_fract_z 
_atom_site_charge 
N1          N  0.51435059  0.85875929  0.46916851    -0.02900
C2          C  0.51759036  0.83935480  0.47780175    -0.00300
C3          C  0.52990917  0.84196905  0.00537066    -0.23200
C4          C  0.52500796  0.85690398  0.01843310    -0.23400
C5          C  0.52103971  0.87116018  0.99447283    -0.00400
H6          H  0.53325788  0.82794134  0.01750983     0.13400
H7          H  0.52462675  0.85752742  0.04273767     0.13400
N8          N  0.32228457  0.85507350  0.45348858    -0.02900
C9          C  0.29981118  0.83468063  0.46055155    -0.00300
C10         C  0.29079853  0.83938469  0.98730866    -0.23200
C11         C  0.30700601  0.86205193  0.99507089    -0.23400
C12         C  0.32662272  0.86897344  0.47562881    -0.00400
H13         H  0.27448164  0.82487049  0.00043333     0.13400
H14         H  0.30612631  0.86853821  0.01577158     0.13400
O15         O  0.43403369  0.95209666  0.24834902    -0.74700
O16         O  0.46128171  0.97436643  0.28207073    -0.53600
C17         C  0.44097573  0.95582380  0.27600407     0.79000
O18         O  0.52068996  0.97560942  0.14432813    -0.59300
O19         O  0.51171863  0.99906442  0.10771781    -0.52300
C20         C  0.51811052  0.98310367  0.11612293     0.71000
O21         O  0.51814229  0.96438611  0.24913032    -0.73900
O22         O  0.50818004  0.98136236  0.28268957    -0.54400
C23         C  0.51489600  0.96683698  0.27664003     0.77000
O24         O  0.43507878  0.96567657  0.14321586    -0.59000
O25         O  0.46450274  0.99350941  0.10713615    -0.52100
C26         C  0.44313237  0.97467416  0.11504627     0.73600
Zr27       Zr  0.44937070  0.97324149  0.19538916     2.54700
O28         O  0.43077308  0.92923702  0.19553897    -0.79600
O29         O  0.40944866  0.96898318  0.19836592    -0.93000
Zr30       Zr  0.51625024  0.98260146  0.19597991     2.64700
O31         O  0.49982516  0.93859654  0.19907261    -0.97900
O32         O  0.55840514  0.99233757  0.19611798    -0.80000
O33         O  0.48198886  0.97444847  0.22493553    -0.83400
O34         O  0.48326304  0.98057286  0.16636868    -2.18100
O35         O  0.47528508  0.06200808  0.13812537    -0.66700
O36         O  0.48712569  0.04690879  0.10418584    -0.51300
C37         C  0.47926780  0.06051952  0.11046935     0.72000
O38         O  0.55736090  0.06556366  0.24281541    -0.59700
O39         O  0.52991662  0.03619137  0.27994971    -0.51600
C40         C  0.54993005  0.05655951  0.27106982     0.73800
O41         O  0.56248674  0.07439046  0.13941443    -0.71100
O42         O  0.53511371  0.05298835  0.10501330    -0.49700
C43         C  0.55585339  0.07086706  0.11172677     0.75200
O44         O  0.47595966  0.05323451  0.24324732    -0.66400
O45         O  0.48361797  0.02878174  0.28004878    -0.53600
C46         C  0.47810878  0.04537495  0.27149801     0.73600
Zr47       Zr  0.47891295  0.04551758  0.19142419     2.77500
O48         O  0.49660781  0.08966074  0.18917017    -0.97100
O49         O  0.43754053  0.03788225  0.19273923    -0.78000
Zr50       Zr  0.54549579  0.05470101  0.19179411     2.70100
O51         O  0.56515343  0.09908892  0.18923242    -0.79200
O52         O  0.58482531  0.05734114  0.19402567    -0.98300
Zr53       Zr  0.49632881  0.00806466  0.25190809     2.21500
Zr54       Zr  0.49896537  0.02017202  0.13519763     2.11100
O55         O  0.51315122  0.05385897  0.16217533    -2.47000
O56         O  0.51171792  0.04737983  0.22085684    -0.79000
O57         O  0.46427384  0.01230622  0.16350940    -0.71200
O58         O  0.53099008  0.01583215  0.22387010    -2.32100
O59         O  0.46289754  0.00631310  0.22325996    -2.28400
O60         O  0.53215666  0.02171838  0.16395788    -0.72900
H61         H  0.47759569  0.96781774  0.15384380     0.79000
H62         H  0.54344182  0.01633075  0.23764899     0.80100
H63         H  0.51927477  0.06928274  0.14820142     0.82400
H64         H  0.44988694  0.00317595  0.23677461     0.80000
H65         H  0.56268816  0.99216658  0.21804114     0.43000
H66         H  0.59672140  0.07456989  0.19670543     0.42000
H67         H  0.55168291  0.10239360  0.18547526     0.41700
H68         H  0.50675583  0.09748626  0.16985780     0.39600
H69         H  0.43968743  0.05449365  0.18977289     0.42700
H70         H  0.40256987  0.96571890  0.17786313     0.37500
H71         H  0.41321529  0.92217238  0.20034134     0.43600
H72         H  0.48606795  0.93311021  0.18491561     0.40000
H73         H  0.48271127  0.09228131  0.18532501     0.45000
H74         H  0.41308189  0.98581694  0.19920786     0.43700
H75         H  0.51244888  0.93743707  0.18884831     0.43800
H76         H  0.58428763  0.04732479  0.21398388     0.44200
N77         N  0.45341382  0.15176943  0.41478201    -0.02900
C78         C  0.45265689  0.17224856  0.40248267    -0.00300
C79         C  0.44445818  0.17058517  0.37277891    -0.23200
C80         C  0.44030761  0.14869429  0.36634712    -0.23400
C81         C  0.44591476  0.13755774  0.39237865    -0.00400
H82         H  0.44207337  0.18409996  0.35727345     0.13400
H83         H  0.43480960  0.14207713  0.34459088     0.13400
N84         N  0.66704880  0.18528731  0.42697692    -0.02900
C85         C  0.68754624  0.20799610  0.42531796    -0.00300
C86         C  0.69225510  0.22018078  0.39518349    -0.23200
C87         C  0.67434030  0.20436426  0.37781146    -0.23400
C88         C  0.65907894  0.18318697  0.39794557    -0.00400
H89         H  0.70712565  0.23863647  0.38675162     0.13400
H90         H  0.67275683  0.20780294  0.35316334     0.13400
O91         O  0.03029933  0.48413060  0.38386681    -0.74700
O92         O  0.00693813  0.48818343  0.41664315    -0.53600
C93         C  0.02516008  0.48606664  0.41068980     0.79000
O94         O  0.03105368  0.56260856  0.26237861    -0.59300
O95         O  0.00788561  0.53271537  0.23367308    -0.52300
C96         C  0.02547467  0.55443184  0.23648948     0.71000
O97         O  0.03224472  0.55975070  0.36637692    -0.73900
O98         O  0.00745791  0.53203341  0.40663968    -0.54400
C99         C  0.02650679  0.55263363  0.39538632     0.77000
O100        O  0.02824635  0.48090381  0.28182387    -0.59000
O101        O  0.00670039  0.48841821  0.24352538    -0.52100
C102        C  0.02349062  0.48390581  0.25309203     0.73600
Zr103      Zr  0.01391612  0.48160531  0.33229302     2.54700
O104        O  0.05793384  0.49920893  0.33143320    -0.79600
O105        O  0.00733120  0.44020928  0.34331241    -0.93000
Zr106      Zr  0.01682438  0.54637363  0.31690824     2.64700
O107        O  0.06128736  0.56923481  0.31200275    -0.97900
O108        O  0.01575822  0.58409122  0.31150603    -0.80000
O109        O  0.01516111  0.51381321  0.35335139    -0.83400
O110        O  0.01638237  0.51457727  0.29613462    -2.18100
O111        O  0.92715677  0.43204058  0.28425023    -0.66700
O112        O  0.95239943  0.46136594  0.24527936    -0.51300
C113        C  0.93375433  0.44021842  0.25545943     0.72000
O114        O  0.92676295  0.50706827  0.36902092    -0.59700
O115        O  0.94979995  0.50272707  0.40777153    -0.51600
C116        C  0.93157148  0.50481304  0.39783808     0.73800
O117        O  0.93278008  0.51457687  0.26451017    -0.71100
O118        O  0.95543182  0.50757531  0.23434945    -0.49700
C119        C  0.93918764  0.51288163  0.23816627     0.75200
O120        O  0.92291918  0.43384301  0.38660266    -0.66400
O121        O  0.94854284  0.46000457  0.41856342    -0.53600
C122        C  0.92863694  0.44051726  0.41334242     0.73600
Zr123      Zr  0.94163693  0.44609995  0.33430983     2.77500
O124        O  0.89815883  0.41529350  0.33480825    -0.97100
O125        O  0.94871737  0.41194624  0.34601977    -0.78000
Zr126      Zr  0.94440759  0.51093703  0.31876430     2.70100
O127        O  0.90060160  0.49413885  0.31542874    -0.79200
O128        O  0.95207687  0.55264858  0.31342368    -0.98300
Zr129      Zr  0.97868275  0.49587358  0.38403853     2.21500
Zr130      Zr  0.97989015  0.49668553  0.26866146     2.11100
O131        O  0.94261963  0.47843730  0.29791354    -2.47000
O132        O  0.94264478  0.47826928  0.35510310    -0.79000
O133        O  0.97799249  0.46327599  0.30373808    -0.71200
O134        O  0.98035313  0.52895389  0.34771088    -2.32100
O135        O  0.97750498  0.46305381  0.36368809    -2.28400
O136        O  0.98090491  0.52948664  0.28809040    -0.72900
H137        H  0.03070553  0.52173578  0.28281303     0.79000
H138        H  0.98074661  0.54117488  0.35816778     0.80100
H139        H  0.92860151  0.47183572  0.28513868     0.82400
H140        H  0.97684033  0.45071586  0.38011847     0.80000
H141        H  0.03190417  0.59716821  0.30196971     0.43000
H142        H  0.93953966  0.55271240  0.29927972     0.42000
H143        H  0.89325276  0.47611308  0.32159241     0.41700
H144        H  0.89551856  0.40166431  0.35150324     0.39600
H145        H  0.93907346  0.40218096  0.36536339     0.42700
H146        H  0.00257421  0.43464695  0.36548489     0.37500
H147        H  0.06481002  0.51659091  0.33388648     0.43600
H148        H  0.06697289  0.58251006  0.32449410     0.40000
H149        H  0.88983251  0.42285762  0.34242435     0.45000
H150        H  0.02391160  0.44278929  0.34202071     0.43700
H151        H  0.06601806  0.55778518  0.32352072     0.43800
H152        H  0.94702902  0.55365605  0.33365281     0.44200
N153        N  0.14314598  0.48736234  0.07526520    -0.02900
C154        C  0.16486862  0.48836909  0.07439874    -0.00300
C155        C  0.17517280  0.49108734  0.10291685    -0.23200
C156        C  0.15967325  0.49228375  0.12182839    -0.23400
C157        C  0.14025242  0.49002302  0.10439037    -0.00400
H158        H  0.19237053  0.49244168  0.10912994     0.13400
H159        H  0.16219460  0.49442334  0.14579974     0.13400
N160        N  0.80476242  0.33593582  0.08459549    -0.02900
C161        C  0.78285171  0.31477275  0.08402114    -0.00300
C162        C  0.77097431  0.30623748  0.11257181    -0.23200
C163        C  0.78606059  0.32248028  0.13152262    -0.23400
C164        C  0.80667478  0.34046977  0.11392502    -0.00400
H165        H  0.75356034  0.28949510  0.11913942     0.13400
H166        H  0.78280847  0.32082810  0.15585429     0.13400
N167        N  0.81064236  0.48423471  0.55500979    -0.02900
C168        C  0.78589772  0.47346337  0.55419679    -0.00300
C169        C  0.77924449  0.46939501  0.07889313    -0.23200
C170        C  0.79843192  0.47276685  0.09709428    -0.23400
C171        C  0.81897422  0.48521974  0.07787149    -0.00400
H172        H  0.76058571  0.46171872  0.08682868     0.13400
H173        H  0.79769395  0.46769015  0.12185415     0.13400
N174        N  0.15300694  0.66273178  0.53234141    -0.02900
C175        C  0.17462665  0.68450477  0.52723459    -0.00300
C176        C  0.18484321  0.69217365  0.05701370    -0.23200
C177        C  0.16810072  0.67432294  0.07916902    -0.23400
C178        C  0.14810208  0.65865167  0.06387201    -0.00400
H179        H  0.20221882  0.70804526  0.06102753     0.13400
H180        H  0.16990552  0.67335570  0.10382764     0.13400
O181        O  0.53663127  0.51345170  0.12983378    -0.74700
O182        O  0.51113901  0.51294017  0.09166214    -0.53600
C183        C  0.53033095  0.51261830  0.10167079     0.79000
O184        O  0.45271559  0.43494653  0.23654215    -0.59300
O185        O  0.46177628  0.46267718  0.26814894    -0.52300
C186        C  0.45575970  0.44101625  0.26352771     0.71000
O187        O  0.45454690  0.44214344  0.13257512    -0.73900
O188        O  0.46370718  0.47398720  0.09330894    -0.54400
C189        C  0.45751389  0.45160293  0.10382046     0.77000
O190        O  0.53816889  0.51763280  0.23044442    -0.59000
O191        O  0.50798745  0.50843695  0.26432203    -0.52100
C192        C  0.52984008  0.51425816  0.25786043     0.73600
Zr193      Zr  0.52296959  0.51641610  0.17812633     2.54700
O194        O  0.54667756  0.49636419  0.18677093    -0.79600
O195        O  0.55985935  0.55710031  0.16972808    -0.93000
Zr196      Zr  0.45691809  0.45466257  0.18261537     2.64700
O197        O  0.47630249  0.43030786  0.18682303    -0.97900
O198        O  0.41573475  0.41876527  0.18487594    -0.80000
O199        O  0.49068514  0.48725025  0.15143888    -0.83400
O200        O  0.48982092  0.48309780  0.20934893    -2.18100
O201        O  0.49140701  0.56756098  0.21943807    -0.66700
O202        O  0.48419840  0.53606954  0.25826692    -0.51300
C203        C  0.48821036  0.55776369  0.24809671     0.72000
O204        O  0.41309835  0.49963486  0.12196354    -0.59700
O205        O  0.44133335  0.50520410  0.08758862    -0.51600
C206        C  0.42077341  0.50273412  0.09419475     0.73800
O207        O  0.41150897  0.49403327  0.22602932    -0.71100
O208        O  0.43883184  0.49532820  0.26208599    -0.49700
C209        C  0.41897131  0.49455880  0.25392187     0.75200
O210        O  0.49237390  0.57433920  0.11518577    -0.66400
O211        O  0.48750332  0.54785274  0.08338152    -0.53600
C212        C  0.49107095  0.56863029  0.08816788     0.73600
Zr213      Zr  0.49204544  0.55632499  0.16918744     2.77500
O214        O  0.47732029  0.58485613  0.16307274    -0.97100
O215        O  0.53411530  0.59065214  0.16712433    -0.78000
Zr216      Zr  0.42590850  0.49484835  0.17485381     2.70100
O217        O  0.40368058  0.51638167  0.17132613    -0.79200
O218        O  0.38764589  0.45541804  0.17776993    -0.98300
Zr219      Zr  0.47609123  0.50930256  0.11734002     2.21500
Zr220      Zr  0.47307687  0.50127922  0.23411601     2.11100
O221        O  0.45843436  0.52390281  0.20078317    -2.47000
O222        O  0.45938091  0.52738920  0.14286449    -0.79000
O223        O  0.50705643  0.53485105  0.20373392    -0.71200
O224        O  0.44185727  0.47642109  0.14869850    -2.32100
O225        O  0.50923661  0.53894926  0.14310286    -2.28400
O226        O  0.43957681  0.47177407  0.20889619    -0.72900
H227        H  0.49587989  0.47468206  0.22400148     0.79000
H228        H  0.42945075  0.46552938  0.13619660     0.80100
H229        H  0.45204325  0.53113291  0.21199992     0.82400
H230        H  0.52218241  0.55136521  0.12863500     0.80000
H231        H  0.41818004  0.40488330  0.18408610     0.43000
H232        H  0.37484964  0.45959397  0.17847704     0.42000
H233        H  0.41595408  0.53303928  0.17567961     0.41700
H234        H  0.46506183  0.57866226  0.18009300     0.39600
H235        H  0.54013359  0.59332743  0.14581490     0.42700
H236        H  0.57337138  0.55378606  0.17181264     0.37500
H237        H  0.53453770  0.47891806  0.19485633     0.43600
H238        H  0.48911784  0.43886084  0.17017769     0.40000
H239        H  0.49128767  0.60044124  0.16821347     0.45000
H240        H  0.56057631  0.56417608  0.18828646     0.43700
H241        H  0.48565883  0.43370680  0.20583663     0.43800
H242        H  0.38637226  0.45075290  0.15718831     0.44200
N243        N  0.44258950  0.32716628  0.45844866    -0.02900
C244        C  0.44045851  0.30498649  0.46836571    -0.00300
C245        C  0.43249796  0.29679669  0.49889868    -0.23200
C246        C  0.42928630  0.31435486  0.50801638    -0.23400
C247        C  0.43548247  0.33259977  0.48270742    -0.00400
H248        H  0.42974868  0.28004434  0.51310217     0.13400
H249        H  0.41381699  0.30644122  0.02470131     0.13400
N250        N  0.31281020  0.51497139  0.42396891    -0.02900
C251        C  0.29459754  0.51992969  0.42439492    -0.00300
C252        C  0.29166468  0.52949131  0.39495851    -0.23200
C253        C  0.30843299  0.53052246  0.37589089    -0.23400
C254        C  0.32111508  0.52160973  0.39423053    -0.00400
H255        H  0.27781532  0.53396294  0.38786202     0.13400
H256        H  0.31060612  0.53632282  0.35119702     0.13400
N257        N  0.64346297  0.51007499  0.45313394    -0.02900
C258        C  0.66283040  0.50671837  0.45365968    -0.00300
C259        C  0.66807773  0.50504818  0.42448565    -0.23200
C260        C  0.65170364  0.50747456  0.40530777    -0.23400
C261        C  0.63695610  0.51050590  0.42335297    -0.00400
H262        H  0.68281751  0.50299865  0.41777990     0.13400
H263        H  0.65087173  0.50750025  0.38073447     0.13400
N264        N  0.47821158  0.67291481  0.39351626    -0.02900
C265        C  0.48352724  0.69652913  0.38607981    -0.00300
C266        C  0.47901163  0.70153972  0.35556679    -0.23200
C267        C  0.47102475  0.68046529  0.34353522    -0.23400
C268        C  0.47060751  0.66314281  0.36723191    -0.00400
H269        H  0.48219105  0.71901008  0.34312154     0.13400
H270        H  0.46765672  0.67862500  0.31954858     0.13400
C271        C  0.39340984  0.49287662  0.33120269    -0.21900
C272        C  0.38080658  0.50512610  0.32170841     0.10100
C273        C  0.38005817  0.51305203  0.28999232     0.10500
C274        C  0.39199234  0.50857125  0.26854954    -0.16800
C275        C  0.40480412  0.49640281  0.27786740    -0.27200
C276        C  0.40537032  0.48831365  0.30981800     0.18800
C277        C  0.36765030  0.50867811  0.34509263     0.12800
C278        C  0.36634788  0.52592056  0.27859219    -0.11600
H279        H  0.39175417  0.51517090  0.24431297     0.13100
C280        C  0.41797999  0.47439043  0.32180256    -0.22400
H281        H  0.39397146  0.48695450  0.35559007     0.08700
C282        C  0.34609549  0.48865923  0.36068968     0.05000
C283        C  0.33236448  0.49334151  0.37921447    -0.19600
C284        C  0.33936083  0.51755560  0.38169054    -0.11900
C285        C  0.36154590  0.53744357  0.36738309     0.13800
C286        C  0.37564033  0.53270584  0.34973053    -0.22400
C287        C  0.33674152  0.46254581  0.35625949    -0.05400
H288        H  0.31520820  0.47818192  0.39004559     0.15300
C289        C  0.37045959  0.56391601  0.36937681    -0.15600
H290        H  0.39232676  0.54804082  0.33810304     0.09600
H291        H  0.41122860  0.45817015  0.31007073     0.07500
H292        H  0.41439952  0.46753028  0.34692420     0.08700
H293        H  0.43806352  0.48659858  0.31806609     0.07700
H294        H  0.37468665  0.54377950  0.28704599     0.02600
H295        H  0.34694285  0.51410711  0.28686023     0.03100
H296        H  0.36675784  0.52986547  0.25306173     0.06600
H297        H  0.31907291  0.44930028  0.36903770     0.05600
H298        H  0.35007168  0.45702898  0.36477791    -0.00200
H299        H  0.33390123  0.46109798  0.33146120     0.01300
H300        H  0.38879740  0.57241673  0.37946586     0.04900
H301        H  0.35825162  0.56597852  0.38377138     0.06900
H302        H  0.37178888  0.57415452  0.34593694     0.07700
C303        C  0.39476299  0.50873317  0.01418321    -0.21900
C304        C  0.37208942  0.50497183  0.02230720     0.10100
C305        C  0.36554515  0.50067541  0.05366939     0.10500
C306        C  0.38159848  0.49975701  0.07621003    -0.16800
C307        C  0.40455649  0.50354946  0.06844818    -0.27200
C308        C  0.41124448  0.50846739  0.03658973     0.18800
C309        C  0.35591637  0.50661746  0.99756022     0.12800
C310        C  0.34186635  0.49775218  0.06337161    -0.11600
H311        H  0.37609600  0.49628335  0.10017285     0.13100
C312        C  0.43571161  0.51396271  0.02547708    -0.22400
H313        H  0.39971608  0.51226273  0.98996859     0.08700
C314        C  0.36576239  0.52892063  0.47470967     0.05000
C315        C  0.35066305  0.53100862  0.45176183    -0.19600
C316        C  0.32650979  0.51174410  0.44950745    -0.11900
C317        C  0.31858391  0.48588594  0.96883254     0.13800
C318        C  0.33442008  0.48504655  0.99183163    -0.22400
C319        C  0.39165045  0.55008890  0.47577122    -0.05400
H320        H  0.35772643  0.54786427  0.43529916     0.15300
C321        C  0.29603985  0.46216811  0.96356401    -0.15600
H322        H  0.33002446  0.46744322  0.00532371     0.09600
H323        H  0.45062212  0.53054060  0.03411527     0.07500
H324        H  0.43768745  0.51786455  0.99996074     0.08700
H325        H  0.43784144  0.49786130  0.03336785     0.07700
H326        H  0.32617214  0.48136316  0.05539679     0.02600
H327        H  0.35624486  0.53402504  0.54196736     0.03100
H328        H  0.33983079  0.49527044  0.08877517     0.06600
H329        H  0.39588477  0.56588763  0.45719350     0.05600
H330        H  0.40077724  0.55310475  0.98184105    -0.00200
H331        H  0.39448722  0.55665357  0.49819822     0.01300
H332        H  0.30139917  0.44957976  0.95714078     0.04900
H333        H  0.28184291  0.47107883  0.44988783     0.06900
H334        H  0.28441932  0.45322491  0.98502235     0.07700
C335        C  0.49327894  0.60763846  0.28899167    -0.21900
C336        C  0.47718082  0.59304370  0.31433059     0.10100
C337        C  0.46586916  0.56728428  0.31868536     0.10500
C338        C  0.47076231  0.55655788  0.29723245    -0.16800
C339        C  0.48643848  0.57100492  0.27119238    -0.27200
C340        C  0.49807389  0.59700263  0.26722709     0.18800
C341        C  0.47225675  0.60561388  0.33528609     0.12800
C342        C  0.44859966  0.55118367  0.34578847    -0.11600
H343        H  0.46150175  0.53662353  0.30035764     0.13100
C344        C  0.51567224  0.61373786  0.24058425    -0.22400
H345        H  0.50184634  0.62751641  0.28606167     0.08700
C346        C  0.49012382  0.61934731  0.35542251     0.05000
C347        C  0.48806725  0.63670919  0.36816895    -0.19600
C348        C  0.46819370  0.64001914  0.36168481    -0.11900
C349        C  0.44869322  0.62382340  0.34486649     0.13800
C350        C  0.45111342  0.60691194  0.33148415    -0.22400
C351        C  0.51168880  0.61619299  0.36251589    -0.05400
H352        H  0.50294915  0.64895567  0.38120999     0.15300
C353        C  0.42552987  0.62450499  0.34060656    -0.15600
H354        H  0.43715119  0.59567886  0.31660427     0.09600
H355        H  0.53038638  0.60959619  0.23954802     0.07500
H356        H  0.52440838  0.63347857  0.24282836     0.08700
H357        H  0.50589183  0.61132730  0.21873179     0.07700
H358        H  0.43261496  0.55354266  0.34478358     0.02600
H359        H  0.45809450  0.55638814  0.36751407     0.03100
H360        H  0.44182133  0.53137527  0.34610700     0.06600
H361        H  0.52377053  0.62811578  0.37911683     0.05600
H362        H  0.52270738  0.62102404  0.34117142    -0.00200
H363        H  0.50507568  0.59670834  0.37279461     0.01300
H364        H  0.42922657  0.64241760  0.32750077     0.04900
H365        H  0.41702548  0.62139774  0.36340154     0.06900
H366        H  0.41206654  0.60994716  0.32768857     0.07700
C367        C  0.50358216  0.60683361  0.00702869    -0.21900
C368        C  0.49310273  0.62090970  0.00991464     0.10100
C369        C  0.48281753  0.61840491  0.03873947     0.10500
C370        C  0.48295912  0.60169083  0.06382201    -0.16800
C371        C  0.49283867  0.58698832  0.06089368    -0.27200
C372        C  0.50352422  0.58987593  0.03197695     0.18800
C373        C  0.49179256  0.63696767  0.98199709     0.12800
C374        C  0.47177204  0.63347450  0.04306977    -0.11600
H375        H  0.47472092  0.59967605  0.08572785     0.13100
C376        C  0.51531242  0.57555288  0.02719914    -0.22400
H377        H  0.51144098  0.60879998  0.98485707     0.08700
C378        C  0.51239745  0.65976707  0.96926614     0.05000
C379        C  0.50397472  0.66886600  0.43482074    -0.19600
C380        C  0.48070543  0.66055856  0.42278070    -0.11900
C381        C  0.46028889  0.63908100  0.43850067     0.13800
C382        C  0.46372867  0.62589824  0.46507627    -0.22400
C383        C  0.53640914  0.66990784  0.98500248    -0.05400
H384        H  0.51956243  0.68526123  0.42262472     0.15300
C385        C  0.43454894  0.63010830  0.42839696    -0.15600
H386        H  0.44806784  0.60928370  0.47686136     0.09600
H387        H  0.52435717  0.58156460  0.00400353     0.07500
H388        H  0.50131760  0.55563605  0.02919034     0.08700
H389        H  0.52943261  0.57836551  0.04451872     0.07700
H390        H  0.45607151  0.62903573  0.02790139     0.02600
H391        H  0.48572542  0.65341063  0.03728058     0.03100
H392        H  0.46504232  0.62974218  0.06717890     0.06600
H393        H  0.55049942  0.68815140  0.97247911     0.05600
H394        H  0.54322286  0.65708055  0.98628778    -0.00200
H395        H  0.53391197  0.67220676  0.00866069     0.01300
H396        H  0.42325906  0.62862945  0.44774535     0.04900
H397        H  0.43346970  0.64278723  0.40885442     0.06900
H398        H  0.42663423  0.61165207  0.42166528     0.07700
C399        C  0.57821225  0.51341792  0.31193275    -0.21900
C400        C  0.57281151  0.51971380  0.33804250     0.10100
C401        C  0.55490470  0.52614623  0.33700745     0.10500
C402        C  0.54163768  0.52468695  0.31025272    -0.16800
C403        C  0.54620255  0.51739037  0.28421838    -0.27200
C404        C  0.56531528  0.51233244  0.28488389     0.18800
C405        C  0.58581862  0.51845444  0.36633401     0.12800
C406        C  0.54972541  0.53432555  0.36417934    -0.11600
H407        H  0.52749537  0.52919270  0.30976559     0.13100
C408        C  0.57184384  0.50499784  0.25787402    -0.22400
H409        H  0.59236471  0.50887418  0.31302385     0.08700
C410        C  0.57864971  0.49557390  0.38512199     0.05000
C411        C  0.59473691  0.49391252  0.40687818    -0.19600
C412        C  0.61759232  0.51466762  0.41018733    -0.11900
C413        C  0.62364412  0.53799143  0.39360067     0.13800
C414        C  0.60759972  0.53965034  0.37173917    -0.22400
C415        C  0.55461443  0.47273614  0.38104002    -0.05400
H416        H  0.59033639  0.47603627  0.41947023     0.15300
C417        C  0.64761267  0.56083976  0.39775968    -0.15600
H418        H  0.61276673  0.55718954  0.35743081     0.09600
H419        H  0.55562568  0.48816952  0.25150962     0.07500
H420        H  0.58662253  0.50090265  0.26318703     0.08700
H421        H  0.57851751  0.52030121  0.23802279     0.07700
H422        H  0.56651363  0.55116153  0.36952047     0.02600
H423        H  0.54383820  0.51950594  0.38453527     0.03100
H424        H  0.53507753  0.53868445  0.35955864     0.06600
H425        H  0.55186420  0.45640568  0.39767214     0.05600
H426        H  0.55391660  0.46862717  0.35744665    -0.00200
H427        H  0.53939304  0.47565072  0.38475564     0.01300
H428        H  0.64956292  0.57749971  0.38271842     0.04900
H429        H  0.66309643  0.55887397  0.39213485     0.06900
H430        H  0.64862592  0.56374807  0.42195822     0.07700
C431        C  0.55802648  0.50616713  0.03096198    -0.21900
C432        C  0.57601728  0.50180048  0.04460803     0.10100
C433        C  0.57985230  0.50243311  0.07624761     0.10500
C434        C  0.56509796  0.50660553  0.09364653    -0.16800
C435        C  0.54628216  0.51016922  0.08047414    -0.27200
C436        C  0.54305321  0.51023428  0.04830658     0.18800
C437        C  0.58979131  0.49559423  0.02539573     0.12800
C438        C  0.59907718  0.49805118  0.09192861    -0.11600
H439        H  0.56815170  0.50654495  0.11804649     0.13100
C440        C  0.52402693  0.51447983  0.03175813    -0.22400
H441        H  0.55541292  0.50592990  0.00650385     0.08700
C442        C  0.57816627  0.47285048  0.01450053     0.05000
C443        C  0.60645381  0.49099472  0.48598193    -0.19600
C444        C  0.63030124  0.51090819  0.47800119    -0.11900
C445        C  0.63891884  0.53254636  0.49085338     0.13800
C446        C  0.61447233  0.51292081  0.01691747    -0.22400
C447        C  0.55221873  0.45297968  0.02443385    -0.05400
H448        H  0.59975395  0.47457429  0.47574767     0.15300
C449        C  0.66402697  0.55483673  0.48303248    -0.15600
H450        H  0.62350777  0.53027504  0.02555573     0.09600
H451        H  0.52484416  0.51471564  0.00661581     0.07500
H452        H  0.52705900  0.53257495  0.03500430     0.08700
H453        H  0.50545977  0.49943411  0.04057054     0.07700
H454        H  0.61743769  0.51252002  0.08181735     0.02600
H455        H  0.59547692  0.47968389  0.08897050     0.03100
H456        H  0.59927361  0.49856890  0.11698346     0.06600
H457        H  0.54624699  0.43608570  0.01443655     0.05600
H458        H  0.53955218  0.45957013  0.01680241    -0.00200
H459        H  0.55073290  0.44788775  0.04989170     0.01300
H460        H  0.66253460  0.57112269  0.47357634     0.04900
H461        H  0.67420652  0.55250844  0.46576239     0.06900
H462        H  0.67473958  0.55855627  0.50418965     0.07700
C463        C  0.44706211  0.38235663  0.31611614    -0.21900
C464        C  0.45218222  0.39002965  0.34483929     0.10100
C465        C  0.45777244  0.41397464  0.34709469     0.10500
C466        C  0.45825866  0.42976908  0.32044599    -0.16800
C467        C  0.45328723  0.42237542  0.29118321    -0.27200
C468        C  0.44740178  0.39796406  0.28933276     0.18800
C469        C  0.44977893  0.37202131  0.37256442     0.12800
C470        C  0.46290473  0.42274654  0.37775592    -0.11600
H471        H  0.46274678  0.44814504  0.32267169     0.13100
C472        C  0.44132660  0.38772836  0.25961486    -0.22400
H473        H  0.44254601  0.36380211  0.31476932     0.08700
C474        C  0.42652631  0.35328873  0.38539283     0.05000
C475        C  0.42482829  0.33765025  0.41265900    -0.19600
C476        C  0.44572215  0.34008940  0.42750107    -0.11900
C477        C  0.46903356  0.35838794  0.41435767     0.13800
C478        C  0.47081353  0.37408415  0.38686368    -0.22400
C479        C  0.40345239  0.35040966  0.37104732    -0.05400
H480        H  0.40704680  0.32411685  0.42340101     0.15300
C481        C  0.49217985  0.36229169  0.42943663    -0.15600
H482        H  0.48868341  0.38843156  0.37698955     0.09600
H483        H  0.42539439  0.38838116  0.24941851     0.07500
H484        H  0.43646398  0.36818666  0.26311263     0.08700
H485        H  0.45737965  0.39835618  0.24335084     0.07700
H486        H  0.47923858  0.42269360  0.38749589     0.02600
H487        H  0.44695308  0.41036669  0.39393804     0.03100
H488        H  0.46647898  0.44178169  0.37566855     0.06600
H489        H  0.38687157  0.33530470  0.38461621     0.05600
H490        H  0.40226829  0.34600127  0.34753883    -0.00200
H491        H  0.40343970  0.36778638  0.36975402     0.01300
H492        H  0.50315784  0.35968610  0.41356961     0.04900
H493        H  0.48860151  0.34927059  0.45120293     0.06900
H494        H  0.50303626  0.38135573  0.43467629     0.07700
C495        C  0.41673574  0.37164110  0.01124207    -0.21900
C496        C  0.44098175  0.39080424  0.01257955     0.10100
C497        C  0.45972009  0.39153607  0.99626550     0.10500
C498        C  0.46166395  0.37633311  0.48702675    -0.16800
C499        C  0.43804416  0.35646588  0.48424461    -0.27200
C500        C  0.41101677  0.35200711  0.99611606     0.18800
C501        C  0.44646576  0.40773079  0.03457863     0.12800
C502        C  0.48577279  0.41270593  0.99554129    -0.11600
H503        H  0.47726542  0.37484450  0.48267863     0.13100
C504        C  0.38459344  0.33201308  0.99537791    -0.22400
H505        H  0.40233349  0.37134674  0.02341793     0.08700
C506        C  0.43948373  0.42544460  0.02975171     0.05000
C507        C  0.44316749  0.43934384  0.05290294    -0.19600
C508        C  0.45353532  0.43579233  0.08081931    -0.11900
C509        C  0.46096320  0.41828314  0.08527897     0.13800
C510        C  0.45718144  0.40440439  0.06210587    -0.22400
C511        C  0.42844280  0.42985317  0.00010719    -0.05400
H512        H  0.43770654  0.45292331  0.04928128     0.15300
C513        C  0.47351455  0.41453832  0.11380320    -0.15600
H514        H  0.46232485  0.39057907  0.06557960     0.09600
H515        H  0.37393656  0.34029665  0.98453076     0.07500
H516        H  0.37720982  0.32285945  0.01919833     0.08700
H517        H  0.39113933  0.32334990  0.47470187     0.07700
H518        H  0.49285505  0.41382188  0.01911383     0.02600
H519        H  0.48663740  0.43023993  0.98584314     0.03100
H520        H  0.50478495  0.41359664  0.49612113     0.06600
H521        H  0.42467199  0.44489358  0.99982232     0.05600
H522        H  0.41092032  0.41289475  0.99699316    -0.00200
H523        H  0.46301115  0.44732981  0.47608006     0.01300
H524        H  0.46082113  0.40695278  0.13417635     0.04900
H525        H  0.49005299  0.43236003  0.11699262     0.06900
H526        H  0.47942608  0.40128853  0.11224706     0.07700
C527        C  0.69358420  0.48378064  0.51268131    -0.21900
C528        C  0.71800944  0.50210321  0.50455315     0.10100
C529        C  0.72321141  0.52417911  0.48515710     0.10500
C530        C  0.70382808  0.52701432  0.47352579    -0.16800
C531        C  0.67933898  0.50768883  0.47898485    -0.27200
C532        C  0.67417385  0.48615411  0.49980673     0.18800
C533        C  0.73770027  0.49714422  0.51508665     0.12800
C534        C  0.74904989  0.54379171  0.47439419    -0.11600
H535        H  0.70787270  0.54323128  0.45686492     0.13100
C536        C  0.64387884  0.45192620  0.02989795    -0.22400
H537        H  0.69048806  0.46471593  0.04017830     0.08700
C538        C  0.75169538  0.50659496  0.54053583     0.05000
C539        C  0.76983863  0.50109359  0.54991261    -0.19600
C540        C  0.77305047  0.48474536  0.53607423    -0.11900
C541        C  0.75858601  0.47477381  0.51105170     0.13800
C542        C  0.74158619  0.48167948  0.50027342    -0.22400
C543        C  0.74608121  0.52067667  0.55940393    -0.05400
H544        H  0.78007992  0.50775770  0.57007235     0.15300
C545        C  0.75972498  0.45587777  0.49638788    -0.15600
H546        H  0.73047822  0.47404624  0.48106080     0.09600
H547        H  0.64614865  0.45810332  0.05250885     0.07500
H548        H  0.64215984  0.43358735  0.03346549     0.08700
H549        H  0.62665184  0.44991637  0.02035673     0.07700
H550        H  0.75712395  0.53584110  0.46197534     0.02600
H551        H  0.76040882  0.55110874  0.49419974     0.03100
H552        H  0.74976708  0.55953567  0.45850217     0.06600
H553        H  0.76778153  0.54290278  0.03925756     0.05600
H554        H  0.73520955  0.52264167  0.04416767    -0.00200
H555        H  0.74841540  0.53773094  0.54519145     0.01300
H556        H  0.74163265  0.43847371  0.49929982     0.04900
H557        H  0.77359490  0.45166412  0.50655737     0.06900
H558        H  0.76439159  0.46279042  0.47144142     0.07700
C559        C  0.20753777  0.51243489  0.50044673    -0.21900
C560        C  0.21459401  0.49484204  0.50524624     0.10100
C561        C  0.20002658  0.46982890  0.03157778     0.10500
C562        C  0.18244896  0.46845278  0.05075886    -0.16800
C563        C  0.17734910  0.48747328  0.04771428    -0.27200
C564        C  0.19006923  0.51088243  0.52013044     0.18800
C565        C  0.23521837  0.49900048  0.48631038     0.12800
C566        C  0.20734188  0.45075353  0.03860413    -0.11600
H567        H  0.17394392  0.45331512  0.06982009     0.13100
C568        C  0.18516095  0.53164128  0.51610983    -0.22400
H569        H  0.21661984  0.52806747  0.48209094     0.08700
C570        C  0.23120020  0.48850648  0.45947654     0.05000
C571        C  0.25132673  0.49417418  0.44141739    -0.19600
C572        C  0.27545913  0.51055820  0.44901186    -0.11900
C573        C  0.27950140  0.52059796  0.47639037     0.13800
C574        C  0.25924856  0.51451146  0.49483020    -0.22400
C575        C  0.20571458  0.47221210  0.44914816    -0.05400
H576        H  0.24819141  0.48668644  0.42024669     0.15300
C577        C  0.30479582  0.53851193  0.48563949    -0.15600
H578        H  0.26209947  0.52238926  0.51562511     0.09600
H579        H  0.16594988  0.52478865  0.50984826     0.07500
H580        H  0.19698891  0.54677124  0.49742591     0.08700
H581        H  0.18873746  0.53946228  0.53771368     0.07700
H582        H  0.22702756  0.45984972  0.04384877     0.02600
H583        H  0.20419873  0.44113713  0.01875787     0.03100
H584        H  0.19677223  0.43660649  0.05878962     0.06600
H585        H  0.20590112  0.46600577  0.42721563     0.05600
H586        H  0.19599390  0.48249472  0.44552205    -0.00200
H587        H  0.19541123  0.45558794  0.46680520     0.01300
H588        H  0.30425963  0.54627912  0.50601771     0.04900
H589        H  0.31464360  0.55406252  0.46647278     0.06900
H590        H  0.31185983  0.52585837  0.99329101     0.07700
C591        C  0.92300276  0.52406090  0.15465382    -0.21900
C592        C  0.89755720  0.51204373  0.15788378     0.10100
C593        C  0.88619476  0.50252757  0.18756017     0.10500
C594        C  0.90049623  0.50458775  0.21343742    -0.16800
C595        C  0.92590036  0.51541182  0.21038747    -0.27200
C596        C  0.93739638  0.52579283  0.18051427     0.18800
C597        C  0.88259407  0.50861852  0.13023015     0.12800
C598        C  0.85881714  0.48956708  0.19183930    -0.11600
H599        H  0.89160180  0.49652825  0.23609093     0.13100
C600        C  0.96476033  0.53889258  0.17556699    -0.22400
H601        H  0.93153122  0.53155028  0.13176450     0.08700
C602        C  0.87501349  0.52532133  0.11846257     0.05000
C603        C  0.85545899  0.51803724  0.09854479    -0.19600
C604        C  0.84374335  0.49466465  0.08974339    -0.11900
C605        C  0.85297617  0.47895572  0.09909144     0.13800
C606        C  0.87243525  0.48621767  0.11917970    -0.22400
C607        C  0.88667029  0.55021229  0.12828091    -0.05400
H608        H  0.84806762  0.52986380  0.09180189     0.15300
C609        C  0.84184731  0.45394456  0.08970347    -0.15600
H610        H  0.87854859  0.47359080  0.12799990     0.09600
H611        H  0.97395680  0.55355284  0.19009861     0.07500
H612        H  0.97052927  0.54773414  0.15121313     0.08700
H613        H  0.97111166  0.52565962  0.18125809     0.07700
H614        H  0.84989925  0.47320761  0.18004160     0.02600
H615        H  0.85247008  0.50231506  0.18200463     0.03100
H616        H  0.85288087  0.48316255  0.21652692     0.06600
H617        H  0.87850016  0.56098484  0.11694940     0.05600
H618        H  0.90649339  0.56087008  0.12192617    -0.00200
H619        H  0.88425244  0.54800078  0.15356349     0.01300
H620        H  0.85597207  0.45304965  0.07750526     0.04900
H621        H  0.82646082  0.44984441  0.07412339     0.06900
H622        H  0.83497321  0.43946837  0.11048644     0.07700
C623        C  0.90036211  0.50099217  0.47290615    -0.21900
C624        C  0.87939714  0.50083134  0.46163639     0.10100
C625        C  0.87587154  0.50248508  0.42971011     0.10500
C626        C  0.89334101  0.50425204  0.40978666    -0.16800
C627        C  0.91441924  0.50406497  0.42078415    -0.27200
C628        C  0.91778284  0.50235803  0.45320320     0.18800
C629        C  0.86037984  0.49662314  0.48400313     0.12800
C630        C  0.85333476  0.50185704  0.41672482    -0.11600
H631        H  0.89010661  0.50531723  0.38536676     0.13100
C632        C  0.93927280  0.50153748  0.46779042    -0.22400
H633        H  0.90274133  0.49935718  0.49754873     0.08700
C634        C  0.84293574  0.47250726  0.49809800     0.05000
C635        C  0.82597710  0.46907001  0.52009530    -0.19600
C636        C  0.82600840  0.48909338  0.52881997    -0.11900
C637        C  0.84310259  0.51323282  0.51434626     0.13800
C638        C  0.86007093  0.51674407  0.49199604    -0.22400
C639        C  0.84247444  0.45035663  0.49030594    -0.05400
H640        H  0.81300562  0.45060598  0.53150286     0.15300
C641        C  0.84401763  0.53546285  0.52241749    -0.15600
H642        H  0.87339043  0.53528108  0.48115087     0.09600
H643        H  0.93885489  0.50053836  0.49314849     0.07500
H644        H  0.95661357  0.51847089  0.45848605     0.08700
H645        H  0.93897111  0.48489471  0.46341786     0.07700
H646        H  0.85256755  0.51759758  0.42245035     0.02600
H647        H  0.83676629  0.48433660  0.42669552     0.03100
H648        H  0.85317678  0.50313102  0.39130181     0.06600
H649        H  0.82767873  0.43285525  0.50342467     0.05600
H650        H  0.86013374  0.45155206  0.49591948    -0.00200
H651        H  0.83941720  0.44963633  0.46539458     0.01300
H652        H  0.86210085  0.54749962  0.53174129     0.04900
H653        H  0.82961232  0.53041057  0.53979438     0.06900
H654        H  0.84136775  0.54598778  0.50143870     0.07700
C655        C  0.88811177  0.38749673  0.21333432    -0.21900
C656        C  0.88678552  0.40092776  0.18546889     0.10100
C657        C  0.90182367  0.42678425  0.18006767     0.10500
C658        C  0.91754182  0.43873041  0.20290740    -0.16800
C659        C  0.91819561  0.42555833  0.23163192    -0.27200
C660        C  0.90350022  0.39944625  0.23662872     0.18800
C661        C  0.86772903  0.38776246  0.16370066     0.12800
C662        C  0.90079820  0.44179846  0.15047121    -0.11600
H663        H  0.92864035  0.45869579  0.19866368     0.13100
C664        C  0.90392598  0.38399603  0.26614975    -0.22400
H665        H  0.87639304  0.36758196  0.21723912     0.08700
C666        C  0.87056581  0.37473392  0.14318636     0.05000
C667        C  0.85082674  0.36065121  0.12533391    -0.19600
C668        C  0.82853844  0.35969972  0.12734138    -0.11900
C669        C  0.82654155  0.37444605  0.14607138     0.13800
C670        C  0.84602039  0.38795836  0.16433527    -0.22400
C671        C  0.89426934  0.37551216  0.14047321    -0.05400
H672        H  0.85242072  0.34944132  0.11093522     0.15300
C673        C  0.80419876  0.37645510  0.14734073    -0.15600
H674        H  0.84416906  0.39856108  0.17951095     0.09600
H675        H  0.89247323  0.36396961  0.26513331     0.07500
H676        H  0.89659725  0.38748289  0.28561458     0.08700
H677        H  0.92292545  0.38842955  0.27057172     0.07700
H678        H  0.88213955  0.43877165  0.14800197     0.02600
H679        H  0.90534998  0.43610679  0.13066334     0.03100
H680        H  0.91384930  0.46185687  0.14981958     0.06600
H681        H  0.89349759  0.36445564  0.12318914     0.05600
H682        H  0.89844103  0.36803921  0.16300474    -0.00200
H683        H  0.90927140  0.39487095  0.13323879     0.01300
H684        H  0.79582267  0.36921807  0.17097967     0.04900
H685        H  0.79019463  0.36633207  0.13102086     0.06900
H686        H  0.80960215  0.39612145  0.14133081     0.07700
C687        C  0.89933126  0.40535827  0.49329599    -0.21900
C688        C  0.87445777  0.39538457  0.48759193     0.10100
C689        C  0.86741949  0.40047959  0.45766704     0.10500
C690        C  0.88545702  0.41514136  0.43401626    -0.16800
C691        C  0.91049543  0.42508101  0.43953780    -0.27200
C692        C  0.91743203  0.42017703  0.46979742     0.18800
C693        C  0.85619290  0.37901986  0.51320759     0.12800
C694        C  0.84086694  0.39019960  0.45066356    -0.11600
H695        H  0.87996415  0.41901784  0.41107910     0.13100
C696        C  0.94376142  0.42968664  0.47739709    -0.22400
H697        H  0.90457219  0.40129382  0.51632053     0.08700
C698        C  0.84843143  0.35377214  0.52079821     0.05000
C699        C  0.83181425  0.33911168  0.54578709    -0.19600
C700        C  0.82279085  0.35029357  0.05967663    -0.11900
C701        C  0.83189724  0.37582158  0.05041758     0.13800
C702        C  0.84691176  0.38896175  0.53058798    -0.22400
C703        C  0.85753466  0.34225623  0.50229002    -0.05400
H704        H  0.82619245  0.31984507  0.55191622     0.15300
C705        C  0.82121647  0.38896681  0.06252641    -0.15600
H706        H  0.85275828  0.40831522  0.52462080     0.09600
H707        H  0.94565227  0.42264877  0.50155372     0.07500
H708        H  0.95401732  0.45010741  0.47456434     0.08700
H709        H  0.95200420  0.42364944  0.46205147     0.07700
H710        H  0.83273287  0.39692367  0.46512745     0.02600
H711        H  0.83085283  0.36974104  0.45559897     0.03100
H712        H  0.83846050  0.39590307  0.42614154     0.06600
H713        H  0.84964070  0.32231629  0.51122091     0.05600
H714        H  0.87772909  0.35155964  0.50315822    -0.00200
H715        H  0.85233492  0.34418162  0.47799145     0.01300
H716        H  0.83501492  0.40292719  0.07591007     0.04900
H717        H  0.80449066  0.37625086  0.07715306     0.06900
H718        H  0.81596846  0.39846003  0.04293810     0.07700
C719        C  0.07406579  0.48303630  0.21092493    -0.21900
C720        C  0.06803798  0.48623616  0.18017938     0.10100
C721        C  0.04683558  0.48726383  0.17344972     0.10500
C722        C  0.03241546  0.48563476  0.19767816    -0.16800
C723        C  0.03865765  0.48314775  0.22885348    -0.27200
C724        C  0.05985705  0.48152918  0.23532215     0.18800
C725        C  0.08445927  0.48840932  0.15571738     0.12800
C726        C  0.03965947  0.49043945  0.14065396    -0.11600
H727        H  0.01633422  0.48676604  0.19194628     0.13100
C728        C  0.06824809  0.47870221  0.26755384    -0.22400
H729        H  0.09034588  0.48207262  0.21579382     0.08700
C730        C  0.10615594  0.51095676  0.14548585     0.05000
C731        C  0.12317246  0.51129111  0.12632760    -0.19600
C732        C  0.11912375  0.48956923  0.11740469    -0.11900
C733        C  0.09686208  0.46721441  0.12653032     0.13800
C734        C  0.07969984  0.46699915  0.14526948    -0.22400
C735        C  0.11175302  0.53444269  0.15579391    -0.05400
H736        H  0.14034683  0.52835597  0.11961896     0.15300
C737        C  0.09130155  0.44296216  0.11878978    -0.15600
H738        H  0.06307877  0.44969130  0.15324976     0.09600
H739        H  0.07280582  0.49496874  0.27810682     0.07500
H740        H  0.08493403  0.47749503  0.26791686     0.08700
H741        H  0.05377987  0.46151200  0.28156025     0.07700
H742        H  0.03676285  0.47489484  0.12965084     0.02600
H743        H  0.05436950  0.50803093  0.12761882     0.03100
H744        H  0.02250994  0.49083916  0.13926333     0.06600
H745        H  0.12938887  0.55046170  0.14553305     0.05600
H746        H  0.11291476  0.53252605  0.18121938    -0.00200
H747        H  0.09708945  0.53839270  0.14872560     0.01300
H748        H  0.08842305  0.42991295  0.14037012     0.04900
H749        H  0.10614469  0.44463789  0.10503296     0.06900
H750        H  0.07441180  0.43509008  0.10546659     0.07700
C751        C  0.05283969  0.48010866  0.48920368    -0.21900
C752        C  0.07732663  0.48998295  0.48032795     0.10100
C753        C  0.08451648  0.49855364  0.44892732     0.10500
C754        C  0.06710886  0.49704514  0.42710655    -0.16800
C755        C  0.04240046  0.48700482  0.43567129    -0.27200
C756        C  0.03525449  0.47839041  0.46736884     0.18800
C757        C  0.09504680  0.49051554  0.50409957     0.12800
C758        C  0.11065207  0.50938560  0.43846706    -0.11600
H759        H  0.07296919  0.50393747  0.40307900     0.13100
C760        C  0.00905791  0.46634706  0.47837066    -0.22400
H761        H  0.04741766  0.47339056  0.51337641     0.08700
C762        C  0.10658345  0.50944925  0.52215829     0.05000
C763        C  0.12316461  0.50905401  0.54423223    -0.19600
C764        C  0.12847233  0.49012075  0.54892036    -0.11900
C765        C  0.11670686  0.47104160  0.53094902     0.13800
C766        C  0.10042012  0.47168635  0.50854603    -0.22400
C767        C  0.10142332  0.53006448  0.51808285    -0.05400
H768        H  0.13168125  0.52092653  0.05513524     0.15300
C769        C  0.11990118  0.44915291  0.53564174    -0.15600
H770        H  0.09141111  0.45705863  0.49481066     0.09600
H771        H  0.00283966  0.47972432  0.47389499     0.07500
H772        H  0.00661592  0.45936265  0.50350278     0.08700
H773        H  0.99734919  0.45045551  0.46635925     0.07700
H774        H  0.11600242  0.49536824  0.44461451     0.02600
H775        H  0.12285671  0.52556938  0.44981707     0.03100
H776        H  0.11334860  0.51554338  0.41316871     0.06600
H777        H  0.11216801  0.54352003  0.53379716     0.05600
H778        H  0.08173312  0.52241490  0.52305865    -0.00200
H779        H  0.10622818  0.54008369  0.49406051     0.01300
H780        H  0.10176816  0.43193847  0.54048365     0.04900
H781        H  0.13142494  0.44907495  0.55523520     0.06900
H782        H  0.12827153  0.44892387  0.51445233     0.07700
C783        C  0.07289264  0.60785047  0.17743190    -0.21900
C784        C  0.07011654  0.59547288  0.15282200     0.10100
C785        C  0.05209771  0.57034305  0.15514288     0.10500
C786        C  0.03759122  0.55798932  0.18226042    -0.16800
C787        C  0.04064923  0.56994002  0.20771249    -0.27200
C788        C  0.05849441  0.59550637  0.20487016     0.18800
C789        C  0.08750591  0.60882756  0.12583837     0.12800
C790        C  0.04820533  0.55649334  0.12900357    -0.11600
H791        H  0.02414496  0.53852282  0.18365226     0.13100
C792        C  0.06271618  0.61008143  0.23030172    -0.22400
H793        H  0.08688944  0.62722281  0.17537190     0.08700
C794        C  0.08613168  0.62659726  0.10359071     0.05000
C795        C  0.10517809  0.64126198  0.08121122    -0.19600
C796        C  0.12529617  0.63820706  0.08037531    -0.11900
C797        C  0.12547252  0.61892240  0.10103340     0.13800
C798        C  0.10668504  0.60460490  0.12363373    -0.22400
C799        C  0.06489588  0.63043524  0.10399004    -0.05400
H800        H  0.10518119  0.65628851  0.06585253     0.15300
C801        C  0.14564877  0.61350288  0.10042238    -0.15600
H802        H  0.10746179  0.59059437  0.14036752     0.09600
H803        H  0.07652510  0.62994696  0.22328571     0.07500
H804        H  0.06963489  0.60313298  0.25071573     0.08700
H805        H  0.04542070  0.60864378  0.23653987     0.07700
H806        H  0.06497383  0.55638307  0.12433177     0.02600
H807        H  0.04378935  0.56549306  0.10799077     0.03100
H808        H  0.03293402  0.53703643  0.13432279     0.06600
H809        H  0.06640451  0.64471605  0.08462775     0.05600
H810        H  0.06414670  0.63641553  0.12584673    -0.00200
H811        H  0.04759930  0.61290329  0.10192404     0.01300
H812        H  0.15521418  0.61633865  0.12248626     0.04900
H813        H  0.15927954  0.62529815  0.08129650     0.06900
H814        H  0.13770396  0.59401808  0.09744118     0.07700
C815        C  0.06266207  0.57851983  0.46628212    -0.21900
C816        C  0.08009590  0.60261595  0.45292381     0.10100
C817        C  0.07985003  0.61013642  0.42105350     0.10500
C818        C  0.06125015  0.59393762  0.40366306    -0.16800
C819        C  0.04369141  0.56953148  0.41666188    -0.27200
C820        C  0.04480765  0.56170753  0.44860450     0.18800
C821        C  0.09932464  0.61913380  0.47241100     0.12800
C822        C  0.10016759  0.63458913  0.40488260    -0.11600
H823        H  0.06114357  0.60022802  0.37930149     0.13100
C824        C  0.02837920  0.53549891  0.46416803    -0.22400
H825        H  0.06349879  0.57265477  0.49062536     0.08700
C826        C  0.09884451  0.63871957  0.48216681     0.05000
C827        C  0.11784516  0.65410563  0.49998200    -0.19600
C828        C  0.13635182  0.64934127  0.50991839    -0.11900
C829        C  0.13643905  0.62935940  0.50083109     0.13800
C830        C  0.11811469  0.61468939  0.48190857    -0.22400
C831        C  0.07749231  0.64233299  0.47564047    -0.05400
H832        H  0.11758561  0.66908306  0.50769305     0.15300
C833        C  0.15549735  0.62292085  0.51108502    -0.15600
H834        H  0.11829326  0.59944093  0.47484107     0.09600
H835        H  0.03275554  0.53258253  0.48867477     0.07500
H836        H  0.03089207  0.52302529  0.45238446     0.08700
H837        H  0.00901436  0.53056087  0.46358503     0.07700
H838        H  0.11783343  0.63532692  0.40817934     0.02600
H839        H  0.10133829  0.65008409  0.41415808     0.03100
H840        H  0.09745164  0.63731543  0.37975758     0.06600
H841        H  0.07973767  0.65804595  0.48568781     0.05600
H842        H  0.06047497  0.62543118  0.48587629    -0.00200
H843        H  0.07539502  0.64601376  0.45056517     0.01300
H844        H  0.14655286  0.60412557  0.52494826     0.04900
H845        H  0.16953884  0.63594948  0.52516946     0.06900
H846        H  0.16500519  0.62324130  0.49060127     0.07700
C847        C  0.74247658  0.24685426  0.47077145    -0.21900
C848        C  0.73072894  0.24985535  0.99621754     0.10100
C849        C  0.70536532  0.24075774  0.99517516     0.10500
C850        C  0.69147266  0.22549184  0.97362065    -0.16800
C851        C  0.70268581  0.21934954  0.45132355    -0.27200
C852        C  0.72857040  0.23175600  0.44916493     0.18800
C853        C  0.74650612  0.26732993  0.01715563     0.12800
C854        C  0.69293936  0.24710036  0.01681032    -0.11600
H855        H  0.67234130  0.21968397  0.97157279     0.13100
C856        C  0.74223961  0.22922690  0.42472012    -0.22400
H857        H  0.76226372  0.25691715  0.46853919     0.08700
C858        C  0.75607773  0.25985322  0.04346722     0.05000
C859        C  0.76941706  0.27654133  0.06369252    -0.19600
C860        C  0.77324740  0.30042976  0.05845029    -0.11900
C861        C  0.76410913  0.30811602  0.03182223     0.13800
C862        C  0.75117106  0.29155572  0.01118899    -0.22400
C863        C  0.75130290  0.23397278  0.05101259    -0.05400
H864        H  0.77610268  0.27061037  0.08447215     0.15300
C865        C  0.76526161  0.32985112  0.53182223    -0.15600
H866        H  0.74093605  0.29481290  0.49563206     0.09600
H867        H  0.75470163  0.22329097  0.43585364     0.07500
H868        H  0.75327664  0.24730049  0.40960614     0.08700
H869        H  0.73007406  0.21523926  0.41037712     0.07700
H870        H  0.70046972  0.26727483  0.01284925     0.02600
H871        H  0.69586577  0.24110051  0.04097022     0.03100
H872        H  0.67293588  0.23781036  0.01350820     0.06600
H873        H  0.75925817  0.23097800  0.07317023     0.05600
H874        H  0.75959017  0.23032872  0.03273984    -0.00200
H875        H  0.73130619  0.22053699  0.05287742     0.01300
H876        H  0.78450986  0.34501980  0.52713782     0.04900
H877        H  0.75852861  0.33541264  0.04581332     0.06900
H878        H  0.75722147  0.33548808  0.00500109     0.07700
C879        C  0.43438436  0.25550561  0.42715432    -0.21900
C880        C  0.45545134  0.25513368  0.43685399     0.10100
C881        C  0.47322054  0.27386887  0.45240610     0.10500
C882        C  0.46905377  0.29202611  0.45902498    -0.16800
C883        C  0.44720933  0.29142203  0.45125798    -0.27200
C884        C  0.42977591  0.27310934  0.43477273     0.18800
C885        C  0.45781095  0.23418455  0.43191931     0.12800
C886        C  0.49575476  0.27371652  0.46378366    -0.11600
H887        H  0.48203006  0.30562022  0.47251971     0.13100
C888        C  0.40550157  0.27061435  0.42671042    -0.22400
H889        H  0.42079560  0.24110964  0.41509002     0.08700
C890        C  0.44445418  0.21069150  0.45043691     0.05000
C891        C  0.44482432  0.19060510  0.44245177    -0.19600
C892        C  0.45884251  0.19384014  0.41690470    -0.11900
C893        C  0.47452702  0.21800248  0.40086913     0.13800
C894        C  0.47334315  0.23775370  0.40804599    -0.22400
C895        C  0.42962892  0.20686051  0.47832880    -0.05400
H896        H  0.43304902  0.17219303  0.45497721     0.15300
C897        C  0.49257093  0.22345861  0.37583501    -0.15600
H898        H  0.48435089  0.25599226  0.39463982     0.09600
H899        H  0.39050515  0.25219164  0.43753520     0.07500
H900        H  0.40377517  0.27246277  0.40135616     0.08700
H901        H  0.40314801  0.28468215  0.43471727     0.07700
H902        H  0.50668668  0.27516694  0.44406277     0.02600
H903        H  0.48978945  0.26019907  0.97443747     0.03100
H904        H  0.50751077  0.28935870  0.47620710     0.06600
H905        H  0.41177927  0.18581432  0.98656563     0.05600
H906        H  0.41514941  0.21110218  0.47142155    -0.00200
H907        H  0.43154908  0.21751828  0.99115605     0.01300
H908        H  0.48779261  0.23074086  0.35362378     0.04900
H909        H  0.49321370  0.20699929  0.37300755     0.06900
H910        H  0.51119773  0.23753859  0.38171151     0.07700
C911        C  0.64042673  0.13788826  0.99983777    -0.21900
C912        C  0.61947118  0.13818227  0.00661880     0.10100
C913        C  0.61432191  0.15503423  0.98802775     0.10500
C914        C  0.63007509  0.17091833  0.96277109    -0.16800
C915        C  0.65096777  0.17054021  0.95595983    -0.27200
C916        C  0.65621229  0.15382646  0.97467180     0.18800
C917        C  0.60326778  0.12073541  0.03337311     0.12800
C918        C  0.59205354  0.15598345  0.99457865    -0.11600
H919        H  0.62399067  0.17483090  0.44564084     0.13100
C920        C  0.67785481  0.15186194  0.96811167    -0.22400
H921        H  0.64434847  0.12493833  0.01411869     0.08700
C922        C  0.58649416  0.09568174  0.03173745     0.05000
C923        C  0.57165280  0.07991544  0.05773790    -0.19600
C924        C  0.57308691  0.08850384  0.08555517    -0.11900
C925        C  0.59014720  0.11378091  0.08704327     0.13800
C926        C  0.60493094  0.12945574  0.06092533    -0.22400
C927        C  0.58395347  0.08568678  0.00236698    -0.05400
H928        H  0.55880151  0.06069554  0.05625898     0.15300
C929        C  0.59258529  0.12477004  0.11556100    -0.15600
H930        H  0.61790880  0.14874622  0.06190840     0.09600
H931        H  0.67142914  0.13277780  0.96460945     0.07500
H932        H  0.69004132  0.15615667  0.98795244     0.08700
H933        H  0.68868193  0.16454741  0.94722746     0.07700
H934        H  0.59299061  0.16083055  0.01778809     0.02600
H935        H  0.57533256  0.13773051  0.99364155     0.03100
H936        H  0.59060134  0.16999411  0.97756521     0.06600
H937        H  0.56981779  0.06574918  0.00489212     0.05600
H938        H  0.60158275  0.08802709  0.99570977    -0.00200
H939        H  0.57862205  0.09575370  0.98366840     0.01300
H940        H  0.59943902  0.11644351  0.13454095     0.04900
H941        H  0.57462000  0.12156465  0.12245523     0.06900
H942        H  0.60574944  0.14499334  0.11176424     0.07700
C943        C  0.60383102  0.10169260  0.31330018    -0.21900
C944        C  0.59188711  0.10148029  0.33903355     0.10100
C945        C  0.56643622  0.08525345  0.34358970     0.10500
C946        C  0.55331898  0.07024080  0.32150103    -0.16800
C947        C  0.56509232  0.07117396  0.29488690    -0.27200
C948        C  0.59087018  0.08673281  0.29119966     0.18800
C949        C  0.60633611  0.12016326  0.35903605     0.12800
C950        C  0.55318265  0.08377814  0.37172943    -0.11600
H951        H  0.53365275  0.05828456  0.32460987     0.13100
C952        C  0.60505943  0.08767911  0.26434286    -0.22400
H953        H  0.62341437  0.11425378  0.31005470     0.08700
C954        C  0.62413931  0.11900478  0.37839904     0.05000
C955        C  0.64008522  0.13927431  0.39282667    -0.19600
C956        C  0.63862212  0.16060361  0.38809526    -0.11900
C957        C  0.61958738  0.16092921  0.37059845     0.13800
C958        C  0.60387065  0.14081177  0.35597254    -0.22400
C959        C  0.62657226  0.09662406  0.38333369    -0.05400
H960        H  0.65458652  0.13901074  0.40646631     0.15300
C961        C  0.61533573  0.18214157  0.36690990    -0.15600
H962        H  0.59001784  0.14154576  0.34130762     0.09600
H963        H  0.60049966  0.06877675  0.26250184     0.07500
H964        H  0.62509760  0.09897660  0.26704310     0.08700
H965        H  0.60084762  0.09619957  0.24272069     0.07700
H966        H  0.55507221  0.10184520  0.37233501     0.02600
H967        H  0.56100977  0.07865285  0.39272265     0.03100
H968        H  0.53336788  0.06975063  0.37202501     0.06600
H969        H  0.64105041  0.09854894  0.39972964     0.05600
H970        H  0.63136366  0.09382087  0.36122029    -0.00200
H971        H  0.60900699  0.08008775  0.39284278     0.01300
H972        H  0.61785572  0.19067178  0.34229345     0.04900
H973        H  0.62775828  0.19655823  0.38061586     0.06900
H974        H  0.59633994  0.17520226  0.37480715     0.07700
C975        C  0.48215621  0.13936994  0.98824984    -0.21900
C976        C  0.46301926  0.11689818  0.00359129     0.10100
C977        C  0.43933759  0.10679122  0.99188322     0.10500
C978        C  0.43551157  0.11902159  0.96465046    -0.16800
C979        C  0.45780606  0.14380250  0.44582475    -0.27200
C980        C  0.48124776  0.15544668  0.45831057     0.18800
C981        C  0.46827206  0.10348910  0.03091709     0.12800
C982        C  0.41836402  0.08248102  0.00724365    -0.11600
H983        H  0.41757970  0.11086184  0.95490257     0.13100
C984        C  0.50194476  0.17934819  0.44186092    -0.22400
H985        H  0.50027905  0.14707104  0.99742957     0.08700
C986        C  0.47991512  0.09042383  0.02780097     0.05000
C987        C  0.48323819  0.07683163  0.05405562    -0.19600
C988        C  0.47511264  0.07571555  0.08372274    -0.11900
C989        C  0.46351591  0.08914793  0.08659915     0.13800
C990        C  0.46037803  0.10282372  0.06017988    -0.22400
C991        C  0.48839678  0.09039802  0.99663210    -0.05400
H992        H  0.49227247  0.06696133  0.05114748     0.15300
C993        C  0.45398186  0.08916366  0.11703357    -0.15600
H994        H  0.45141199  0.11292445  0.06224316     0.09600
H995        H  0.51942226  0.18489753  0.45365338     0.07500
H996        H  0.49806772  0.19428093  0.44129481     0.08700
H997        H  0.50446171  0.17748016  0.41799775     0.07700
H998        H  0.41497044  0.08382454  0.03100939     0.02600
H999        H  0.42276720  0.06782859  0.00808814     0.03100
H1000       H  0.40122756  0.07695916  0.99463169     0.06600
H1001       H  0.49660474  0.07873555  0.99813101     0.05600
H1002       H  0.50243323  0.10944250  0.98624527     0.06100
H1003       H  0.47266597  0.08311252  0.98128244     0.01300
H1004       H  0.44483103  0.10000144  0.11443648     0.04900
H1005       H  0.46934362  0.09769859  0.13257095     0.06900
H1006       H  0.44032267  0.07001429  0.12760732     0.07700
C1007       C  0.43482753  0.07968965  0.36872799    -0.21900
C1008       C  0.45897687  0.08509143  0.36726996     0.10100
C1009       C  0.47722957  0.10391383  0.38242516     0.10500
C1010       C  0.47156726  0.11911702  0.39492905    -0.16800
C1011       C  0.44817146  0.11584810  0.39227700    -0.27200
C1012       C  0.42914154  0.09468173  0.38155841     0.18800
C1013       C  0.46539089  0.07461500  0.34456992     0.12800
C1014       C  0.50291354  0.10877597  0.38389389    -0.11600
H1015       H  0.48605607  0.13507125  0.40378335     0.13100
C1016       C  0.40294658  0.08822476  0.38208492    -0.22400
H1017       H  0.42067282  0.06490879  0.35767604     0.08700
C1018       C  0.45758643  0.04940919  0.34813074     0.05000
C1019       C  0.46213658  0.04044227  0.32396903    -0.19600
C1020       C  0.47398633  0.05603432  0.29617577    -0.11900
C1021       C  0.48245568  0.08148489  0.29317056     0.13800
C1022       C  0.47787189  0.09033646  0.31731611    -0.22400
C1023       C  0.44464028  0.03207834  0.37737011    -0.05400
H1024       H  0.45596227  0.02103434  0.32657038     0.15300
C1025       C  0.49681973  0.09960926  0.26503130    -0.15600
H1026       H  0.48366867  0.10968039  0.31473065     0.09600
H1027       H  0.39136806  0.06930338  0.39506237     0.07500
H1028       H  0.39656689  0.08884764  0.35820565     0.08700
H1029       H  0.40044503  0.10090569  0.39351228     0.07700
H1030       H  0.51137242  0.11441420  0.36042804     0.02600
H1031       H  0.50256202  0.09178842  0.39513802     0.03100
H1032       H  0.51465209  0.12370308  0.39737247     0.06600
H1033       H  0.44051207  0.01312690  0.37669346     0.05600
H1034       H  0.42710477  0.03103488  0.38092116    -0.00200
H1035       H  0.45634444  0.03878164  0.39722162     0.01300
H1036       H  0.48508805  0.09573172  0.24479974     0.04900
H1037       H  0.51300142  0.09834863  0.26072131     0.06900
H1038       H  0.50348159  0.11890985  0.26780238     0.07700
C1039       C  0.26748323  0.76759508  0.46354199    -0.21900
C1040       C  0.24680329  0.76414170  0.44710210     0.10100
C1041       C  0.24843953  0.78433797  0.42636730     0.10500
C1042       C  0.26897326  0.80814609  0.42666659    -0.16800
C1043       C  0.28797378  0.81191539  0.44676288    -0.27200
C1044       C  0.28821850  0.79116855  0.46307767     0.18800
C1045       C  0.22278806  0.74178232  0.45842413     0.12800
C1046       C  0.22808867  0.78089960  0.40504016    -0.11600
H1047       H  0.26891141  0.82402106  0.41373738     0.13100
C1048       C  0.31040391  0.79782794  0.98206226    -0.22400
H1049       H  0.26827619  0.75569034  0.97898558     0.08700
C1050       C  0.21764006  0.71751827  0.45882663     0.05000
C1051       C  0.19864759  0.69771549  0.47848977    -0.19600
C1052       C  0.18494562  0.70174832  0.49788186    -0.11900
C1053       C  0.18963120  0.72851870  0.99755702     0.13800
C1054       C  0.20715573  0.74520988  0.47521441    -0.22400
C1055       C  0.23274132  0.71264123  0.43948153    -0.05400
H1056       H  0.19612859  0.67949188  0.48094925     0.15300
C1057       C  0.17491152  0.73406852  0.01668317    -0.15600
H1058       H  0.21275138  0.76680432  0.97880627     0.09600
H1059       H  0.31783448  0.78738034  0.97413240     0.07500
H1060       H  0.30438905  0.79056291  0.00665412     0.08700
H1061       H  0.32541149  0.81738771  0.98005280     0.07700
H1062       H  0.21089958  0.77395564  0.41829150     0.02600
H1063       H  0.22515693  0.76743344  0.39007841     0.03100
H1064       H  0.23250835  0.79848382  0.38999901     0.06600
H1065       H  0.22580686  0.69260926  0.44187201     0.05600
H1066       H  0.25200834  0.72190539  0.44644580    -0.00200
H1067       H  0.23204694  0.71966974  0.41489225     0.01300
H1068       H  0.18701183  0.74656498  0.03274740     0.04900
H1069       H  0.15972633  0.71721077  0.03024245     0.06900
H1070       H  0.16670724  0.74327109  0.00132402     0.07700
C1071       C  0.36792547  0.93342013  0.00093603    -0.21900
C1072       C  0.38582746  0.92844716  0.01320843     0.10100
C1073       C  0.38706303  0.90896384  0.00455107     0.10500
C1074       C  0.36871563  0.89320294  0.98654022    -0.16800
C1075       C  0.34904778  0.89633309  0.97755189    -0.27200
C1076       C  0.34953519  0.91760130  0.98304062     0.18800
C1077       C  0.40034280  0.94103726  0.03874224     0.12800
C1078       C  0.40690370  0.90394523  0.01587116    -0.11600
H1079       H  0.36829144  0.87684241  0.98253031     0.13100
C1080       C  0.33010087  0.92322262  0.97172427    -0.22400
H1081       H  0.36729188  0.94869907  0.00709924     0.08700
C1082       C  0.42099143  0.96500362  0.03373459     0.05000
C1083       C  0.43413718  0.97552665  0.05906688    -0.19600
C1084       C  0.42714517  0.96269180  0.08956661    -0.11900
C1085       C  0.40583181  0.93867693  0.09434310     0.13800
C1086       C  0.39283310  0.92833656  0.06885383    -0.22400
C1087       C  0.42931237  0.97928135  0.00165619    -0.05400
H1088       H  0.45012282  0.99394195  0.05481236     0.15300
C1089       C  0.39665884  0.92332633  0.12582713    -0.15600
H1090       H  0.37669430  0.90996779  0.07233384     0.09600
H1091       H  0.33879418  0.94182373  0.95737817     0.07500
H1092       H  0.32008185  0.92295083  0.99163864     0.08700
H1093       H  0.31677013  0.90981138  0.95741525     0.07700
H1094       H  0.40578078  0.89946602  0.04136645     0.02600
H1095       H  0.42505051  0.92048998  0.00837407     0.03100
H1096       H  0.40533914  0.88818493  0.00665091     0.06600
H1097       H  0.44598919  0.99773619  0.00169012     0.05600
H1098       H  0.41468094  0.98197501  0.99067780    -0.00200
H1099       H  0.43350204  0.96896855  0.98773005     0.01300
H1100       H  0.39155052  0.93272680  0.14014409     0.04900
H1101       H  0.41094934  0.92016017  0.13700381     0.06900
H1102       H  0.38013958  0.90495232  0.12469968     0.07700
C1103       C  0.41112223  0.92442087  0.35698838    -0.21900
C1104       C  0.39008044  0.90306650  0.35046944     0.10100
C1105       C  0.38652574  0.89815980  0.32006790     0.10500
C1106       C  0.40350726  0.91545852  0.29651744    -0.16800
C1107       C  0.42437577  0.93754988  0.30257774    -0.27200
C1108       C  0.42855219  0.94149285  0.33381385     0.18800
C1109       C  0.37114362  0.88744168  0.37548413     0.12800
C1110       C  0.36490924  0.87453316  0.31258165    -0.11600
H1111       H  0.40028502  0.91163201  0.27317221     0.13100
C1112       C  0.45098576  0.96352656  0.34355156    -0.22400
H1113       H  0.41366772  0.92796021  0.38048767     0.08700
C1114       C  0.37458904  0.87285797  0.40069894     0.05000
C1115       C  0.35709243  0.86059319  0.42522325    -0.19600
C1116       C  0.33676302  0.86328136  0.42550857    -0.11900
C1117       C  0.33317509  0.87756280  0.40007373     0.13800
C1118       C  0.35024563  0.88922102  0.37526234    -0.22400
C1119       C  0.39691815  0.87067529  0.40205582    -0.05400
H1120       H  0.35982575  0.84981253  0.44493651     0.15300
C1121       C  0.31211077  0.88178154  0.39906046    -0.15600
H1122       H  0.34779054  0.90071628  0.35615465     0.09600
H1123       H  0.46764375  0.96367395  0.33747476     0.07500
H1124       H  0.45085173  0.96316128  0.36880336     0.08700
H1125       H  0.45190518  0.98078002  0.33234510     0.07700
H1126       H  0.34764760  0.87347181  0.31794879     0.02600
H1127       H  0.36518511  0.85855947  0.32641427     0.03100
H1128       H  0.36518167  0.87318116  0.28786469     0.06600
H1129       H  0.39648305  0.85818601  0.42308907     0.05600
H1130       H  0.41362264  0.88903837  0.40232453    -0.00200
H1131       H  0.39797912  0.86320629  0.38167780     0.01300
H1132       H  0.31924407  0.90179874  0.39742421     0.04900
H1133       H  0.29962657  0.87196449  0.41963065     0.06900
H1134       H  0.30127987  0.87526994  0.37853160     0.07700
C1135       C  0.48744260  0.73898476  0.43785240    -0.21900
C1136       C  0.50950119  0.76041575  0.42644538     0.10100
C1137       C  0.52502952  0.75896753  0.40660360     0.10500
C1138       C  0.51716568  0.73651219  0.39668763    -0.16800
C1139       C  0.49409083  0.71568900  0.40583594    -0.27200
C1140       C  0.47934804  0.71666527  0.42738422     0.18800
C1141       C  0.51497760  0.78424703  0.43424505     0.12800
C1142       C  0.54909353  0.78135858  0.39431266    -0.11600
H1143       H  0.52825355  0.73566331  0.37983073     0.13100
C1144       C  0.45444451  0.69477576  0.43770107    -0.22400
H1145       H  0.47587625  0.74013708  0.45365588     0.08700
C1146       C  0.50074568  0.79473123  0.42317713     0.05000
C1147       C  0.50373301  0.81491456  0.43526168    -0.19600
C1148       C  0.52101556  0.82512121  0.45755203    -0.11900
C1149       C  0.54858932  0.82763701  0.95417079     0.13800
C1150       C  0.53374391  0.79587501  0.45429230    -0.22400
C1151       C  0.48208086  0.78433648  0.39910054    -0.05400
H1152       H  0.49129055  0.82143539  0.42897966     0.15300
C1153       C  0.57296680  0.84355824  0.96744106    -0.15600
H1154       H  0.55795128  0.80109448  0.94780221     0.09600
H1155       H  0.44491126  0.69911141  0.45355911     0.07500
H1156       H  0.45630260  0.67936884  0.45011083     0.08700
H1157       H  0.44291251  0.68885295  0.41750460     0.07700
H1158       H  0.56144920  0.78831717  0.41352755     0.02600
H1159       H  0.54605434  0.79604379  0.38193632     0.03100
H1160       H  0.55841378  0.77709790  0.37803975     0.06600
H1161       H  0.47324549  0.79531371  0.39229083     0.05600
H1162       H  0.46752557  0.76513413  0.40796436    -0.00200
H1163       H  0.49113317  0.78454813  0.37823596     0.01300
H1164       H  0.57529043  0.83299785  0.98864568     0.04900
H1165       H  0.57496468  0.86065181  0.97307220     0.06900
H1166       H  0.58779668  0.84918083  0.95037559     0.07700
C1167       C  0.49790695  0.90488384  0.02969241    -0.21900
C1168       C  0.51860241  0.92869268  0.02516979     0.10100
C1169       C  0.53801285  0.93431437  0.00535601     0.10500
C1170       C  0.53699321  0.91541813  0.99221873    -0.16800
C1171       C  0.51733529  0.89108473  0.99931856    -0.27200
C1172       C  0.49713597  0.88589056  0.01733996     0.18800
C1173       C  0.52098287  0.94577824  0.04554532     0.12800
C1174       C  0.56014599  0.95994667  0.99915324    -0.11600
H1175       H  0.55250306  0.91922071  0.97858418     0.13100
C1176       C  0.47507567  0.86031350  0.02540168    -0.22400
H1177       H  0.48301686  0.90065156  0.04490546     0.08700
C1178       C  0.50677215  0.95683495  0.04218357     0.05000
C1179       C  0.50709067  0.96972290  0.06501012    -0.19600
C1180       C  0.52101001  0.97152144  0.09146869    -0.11900
C1181       C  0.53606515  0.96120204  0.09402216     0.13800
C1182       C  0.53577965  0.94847100  0.07099906    -0.22400
C1183       C  0.49109880  0.95480194  0.01473027    -0.05400
H1184       H  0.49556613  0.97759321  0.06266640     0.15300
C1185       C  0.55258658  0.96349164  0.12061282    -0.15600
H1186       H  0.54652829  0.93973096  0.07337941     0.09600
H1187       H  0.45846357  0.86032570  0.01676284     0.07500
H1188       H  0.47303549  0.85466280  0.05078514     0.08700
H1189       H  0.47622251  0.84626957  0.01540235     0.07700
H1190       H  0.56950709  0.96536006  0.02088250     0.02600
H1191       H  0.55444894  0.97316211  0.98896254     0.03100
H1192       H  0.57349519  0.96120354  0.98286647     0.06600
H1193       H  0.48146159  0.96493334  0.01540263     0.05600
H1194       H  0.47707856  0.93518288  0.01414620    -0.00200
H1195       H  0.50272266  0.96266531  0.99328263     0.01300
H1196       H  0.54158953  0.95290166  0.14224192     0.04900
H1197       H  0.56473908  0.98320123  0.12288403     0.06900
H1198       H  0.56436227  0.95603598  0.11728206     0.07700
C1199       C  0.49615133  0.88442229  0.39665516    -0.21900
C1200       C  0.51897364  0.90137690  0.38185510     0.10100
C1201       C  0.54021498  0.90276328  0.39499337     0.10500
C1202       C  0.53816195  0.88762929  0.42315164    -0.16800
C1203       C  0.51540388  0.87140453  0.43850108    -0.27200
C1204       C  0.49409585  0.86931500  0.42466683     0.18800
C1205       C  0.52011447  0.91855666  0.35387553     0.12800
C1206       C  0.56498668  0.92036357  0.37945397    -0.11600
H1207       H  0.55439355  0.88904606  0.43386847     0.13100
C1208       C  0.46894258  0.85118094  0.43884290    -0.22400
H1209       H  0.47983163  0.88325288  0.38650364     0.08700
C1210       C  0.51274955  0.91085194  0.32503353     0.05000
C1211       C  0.51219638  0.92732596  0.30001096    -0.19600
C1212       C  0.51821726  0.95120119  0.30326817    -0.11900
C1213       C  0.52607394  0.95899610  0.33226322     0.13800
C1214       C  0.52705680  0.94260396  0.35698661    -0.22400
C1215       C  0.50525603  0.88516986  0.32076419    -0.05400
H1216       H  0.50613567  0.92115891  0.27805169     0.15300
C1217       C  0.53364949  0.98452649  0.33758725    -0.15600
H1218       H  0.53260990  0.94832030  0.37927168     0.09600
H1219       H  0.45752324  0.83896132  0.42215150     0.07500
H1220       H  0.46035117  0.86125959  0.44463665     0.08700
H1221       H  0.46916394  0.83921772  0.45995442     0.07700
H1222       H  0.56926848  0.93961884  0.37757651     0.02600
H1223       H  0.56511839  0.91624072  0.35605650     0.03100
H1224       H  0.57960631  0.91885284  0.39252881     0.06600
H1225       H  0.50031746  0.88221023  0.29667639     0.05600
H1226       H  0.48912117  0.87141537  0.33601819    -0.00200
H1227       H  0.52057661  0.88199770  0.32653858     0.01300
H1228       H  0.54116809  0.98788687  0.36075070     0.04900
H1229       H  0.51765564  0.98690611  0.33621625     0.06900
H1230       H  0.54803072  0.99861399  0.32025149     0.07700
N1231       N  0.52331448  0.86558838  0.96707114    -0.02900
C1232       C  0.52896251  0.84781399  0.97388843    -0.00300
C1233       C  0.51418922  0.83203220  0.50937489    -0.23200
C1234       C  0.50919811  0.84764527  0.52059915    -0.23400
C1235       C  0.50945314  0.86388778  0.49555093    -0.00400
H1236       H  0.51499375  0.81675076  0.52279447     0.13400
H1237       H  0.50633403  0.84760069  0.54454917     0.13400
N1238       N  0.32149596  0.85944164  0.95149823    -0.02900
C1239       C  0.29998360  0.83822081  0.96047524    -0.00300
C1240       C  0.29018328  0.83569474  0.48712815    -0.23200
C1241       C  0.30714006  0.85744261  0.49664169    -0.23400
C1242       C  0.32564072  0.87400075  0.97279846    -0.00400
H1243       H  0.27310465  0.82154042  0.49905894     0.13400
H1244       H  0.30595359  0.86362078  0.51745829     0.13400
O1245       O  0.43436483  0.95653015  0.74536859    -0.74700
O1246       O  0.46239083  0.97681732  0.77969625    -0.53600
C1247       C  0.44140182  0.95931479  0.77321723     0.79000
O1248       O  0.52021783  0.97548211  0.64206313    -0.59300
O1249       O  0.51288232  0.00010275  0.60521943    -0.52300
C1250       C  0.51846319  0.98352117  0.61375734     0.71000
O1251       O  0.51786673  0.96455639  0.74654738    -0.73900
O1252       O  0.51001505  0.98316947  0.78003016    -0.54400
C1253       C  0.51589545  0.96801269  0.77394744     0.77000
O1254       O  0.43689502  0.96855295  0.64044756    -0.59000
O1255       O  0.46642244  0.99590053  0.60425111    -0.52100
C1256       C  0.44505746  0.97702841  0.61227181     0.73600
Zr1257     Zr  0.45059192  0.97718380  0.69245147     2.54700
O1258       O  0.42865068  0.93282941  0.69341831    -0.79600
O1259       O  0.41239243  0.97687137  0.69206490    -0.93000
Zr1260     Zr  0.51579545  0.98266640  0.69358546     2.64700
O1261       O  0.49789246  0.93866024  0.69428434    -0.97900
O1262       O  0.55757431  0.99138559  0.69299280    -0.80000
O1263       O  0.48217837  0.97628252  0.72240923    -0.83400
O1264       O  0.48377418  0.98264800  0.66377620    -2.18100
O1265       O  0.48114621  0.06738203  0.63553793    -0.66700
O1266       O  0.49086691  0.05050014  0.60164151    -0.51300
C1267       C  0.48426375  0.06512224  0.60792592     0.72000
O1268       O  0.56059857  0.06741100  0.74037439    -0.59700
O1269       O  0.53162672  0.03938429  0.77701008    -0.51600
C1270       C  0.55206720  0.05939722  0.76836715     0.73800
O1271       O  0.56647458  0.07224946  0.63770255    -0.71100
O1272       O  0.53854624  0.05303556  0.60256696    -0.49700
C1273       C  0.56005498  0.06922266  0.60987983     0.75200
O1274       O  0.47971954  0.05640345  0.74056068    -0.66400
O1275       O  0.48576414  0.03106365  0.77782090    -0.53600
C1276       C  0.48087933  0.04810285  0.76897495     0.73600
Zr1277     Zr  0.48366628  0.04964300  0.68856310     2.77500
O1278       O  0.50253027  0.09379926  0.68767026    -0.97100
O1279       O  0.44272317  0.04322954  0.68807787    -0.78000
Zr1280     Zr  0.54865015  0.05481592  0.68990877     2.70100
O1281       O  0.57183586  0.09951924  0.68536810    -0.79200
O1282       O  0.58570225  0.05286674  0.69391459    -0.98300
Zr1283     Zr  0.49817912  0.01004374  0.74966573     2.21500
Zr1284     Zr  0.50122460  0.02232349  0.63235398     2.11100
O1285       O  0.51736151  0.05613600  0.65968373    -2.47000
O1286       O  0.51548706  0.04945142  0.71830740    -0.79000
O1287       O  0.46731527  0.01641977  0.66041723    -0.71200
O1288       O  0.53219479  0.01580592  0.72204585    -2.32100
O1289       O  0.46583634  0.01034003  0.72046594    -2.28400
O1290       O  0.53328433  0.02182181  0.66170651    -0.72900
H1291       H  0.47765079  0.96976499  0.65135936     0.79000
H1292       H  0.54442227  0.01567662  0.73581315     0.80100
H1293       H  0.52429801  0.07164011  0.64572330     0.82400
H1294       H  0.45307430  0.00789420  0.73385894     0.80000
H1295       H  0.55996838  0.98507948  0.71415556     0.43000
H1296       H  0.59694980  0.06592744  0.67737688     0.42000
H1297       H  0.56037562  0.10465637  0.67638244     0.41700
H1298       H  0.51597325  0.10161920  0.67187956     0.39600
H1299       H  0.43582294  0.03499863  0.70919261     0.42700
H1300       H  0.41308385  0.98484781  0.70970816     0.37500
H1301       H  0.43794913  0.92707233  0.70734995     0.43600
H1302       H  0.51117848  0.93552244  0.70086059     0.40000
H1303       H  0.49031594  0.09778474  0.67847997     0.45000
H1304       H  0.39970993  0.95930219  0.69842232     0.43700
H1305       H  0.48589834  0.93051264  0.71189206     0.43800
H1306       H  0.59301944  0.05911063  0.71317705     0.44200
N1307       N  0.45066249  0.14944499  0.91765475    -0.02900
C1308       C  0.44970886  0.16993736  0.90637290    -0.00300
C1309       C  0.44159565  0.16903666  0.87664454    -0.23200
C1310       C  0.43753190  0.14747172  0.86918139    -0.23400
C1311       C  0.44322274  0.13583001  0.89461207    -0.00400
H1312       H  0.43942521  0.18294549  0.86173933     0.13400
H1313       H  0.43235813  0.14157695  0.84698703     0.13400
N1314       N  0.66575118  0.18621881  0.92886428    -0.02900
C1315       C  0.68817912  0.20701059  0.92730994    -0.00300
C1316       C  0.69583835  0.21722127  0.89688763    -0.23200
C1317       C  0.67761793  0.20209417  0.87921837    -0.23400
C1318       C  0.65934367  0.18331421  0.89943013    -0.00400
H1319       H  0.71280742  0.23392411  0.88848044     0.13400
H1320       H  0.67781153  0.20431102  0.85434992     0.13400
O1321       O  0.03096273  0.48170514  0.88421793    -0.74700
O1322       O  0.00991744  0.48852858  0.91712852    -0.53600
C1323       C  0.02670505  0.48440148  0.91100915     0.79000
O1324       O  0.03540023  0.56132948  0.76225422    -0.59300
O1325       O  0.01007142  0.53207081  0.73360520    -0.52300
C1326       C  0.02879662  0.55318952  0.73643573     0.71000
O1327       O  0.03568221  0.56217451  0.86501686    -0.73900
O1328       O  0.01196322  0.53415979  0.90578111    -0.54400
C1329       C  0.03014908  0.55529533  0.89408567     0.77000
O1330       O  0.02952725  0.47997976  0.78220907    -0.59000
O1331       O  0.00748332  0.48660869  0.74387216    -0.52100
C1332       C  0.02445343  0.48235751  0.75358119     0.73600
Zr1333     Zr  0.01539125  0.48064515  0.83250780     2.54700
O1334       O  0.05859866  0.49419808  0.83338996    -0.79600
O1335       O  0.00543978  0.43804689  0.84220846    -0.93000
Zr1336     Zr  0.02097321  0.54651258  0.81665075     2.64700
O1337       O  0.06536293  0.56722559  0.81739301    -0.97900
O1338       O  0.02254542  0.58570144  0.80609782    -0.80000
O1339       O  0.01857149  0.51378934  0.85350007    -0.83400
O1340       O  0.01871963  0.51380262  0.79597397    -2.18100
O1341       O  0.92722811  0.43207673  0.78767112    -0.66700
O1342       O  0.95126339  0.46067268  0.74734950    -0.51300
C1343       C  0.93268834  0.43968688  0.75865645     0.72000
O1344       O  0.93285674  0.51142245  0.87026263    -0.59700
O1345       O  0.95548351  0.50617501  0.90892552    -0.51600
C1346       C  0.93776591  0.50911575  0.89899036     0.73800
O1347       O  0.93625831  0.51621892  0.76650882    -0.71100
O1348       O  0.95696799  0.50750953  0.73552418    -0.49700
C1349       C  0.94123597  0.51333621  0.74011289     0.75200
O1350       O  0.92745863  0.43433156  0.88885101    -0.66400
O1351       O  0.95268232  0.46139317  0.92014655    -0.53600
C1352       C  0.93327444  0.44123372  0.91532317     0.73600
Zr1353     Zr  0.94378704  0.44745182  0.83598404     2.77500
O1354       O  0.89951696  0.42014024  0.83759670    -0.97100
O1355       O  0.94850799  0.41177532  0.84726310    -0.78000
Zr1356     Zr  0.94880003  0.51321145  0.82005479     2.70100
O1357       O  0.90479831  0.49552036  0.81851631    -0.79200
O1358       O  0.95520025  0.55452010  0.81339165    -0.98300
Zr1359     Zr  0.98257237  0.49734070  0.88479435     2.21500
Zr1360     Zr  0.98173311  0.49643951  0.76899330     2.11100
O1361       O  0.94544355  0.47995098  0.79953532    -2.47000
O1362       O  0.94609265  0.48028198  0.85675111    -0.79000
O1363       O  0.97921786  0.46287599  0.80442962    -0.71200
O1364       O  0.98517187  0.53066213  0.84807053    -2.32100
O1365       O  0.97987114  0.46378175  0.86464027    -2.28400
O1366       O  0.98461904  0.53019439  0.78854852    -0.72900
H1367       H  0.03287745  0.52040452  0.78254227     0.79000
H1368       H  0.98623582  0.54329969  0.85829129     0.80100
H1369       H  0.93107896  0.47346681  0.78734213     0.82400
H1370       H  0.97905441  0.45133562  0.88102375     0.80000
H1371       H  0.00889787  0.58275614  0.79225257     0.43000
H1372       H  0.93852725  0.55173402  0.81454400     0.42000
H1373       H  0.89782433  0.47849862  0.82987244     0.41700
H1374       H  0.89614150  0.40494122  0.85173766     0.39600
H1375       H  0.93180136  0.39745303  0.84630385     0.42700
H1376       H  0.01070261  0.43570628  0.86340549     0.37500
H1377       H  0.06711328  0.51238578  0.82798772     0.43600
H1378       H  0.06986443  0.56001270  0.80272788     0.40000
H1379       H  0.89305290  0.42785779  0.84874675     0.45000
H1380       H  0.01727462  0.43788947  0.82891749     0.43700
H1381       H  0.07125534  0.58436677  0.80716091     0.43800
H1382       H  0.96266332  0.56081264  0.83259778     0.44200
N1383       N  0.14458735  0.49007201  0.57325880    -0.02900
C1384       C  0.16644024  0.49136222  0.57148825    -0.00300
C1385       C  0.17641366  0.49219032  0.60023263    -0.23200
C1386       C  0.16056535  0.49162136  0.62033390    -0.23400
C1387       C  0.14130136  0.49030491  0.60335666    -0.00400
H1388       H  0.19345070  0.49300618  0.60594797     0.13400
H1389       H  0.16268512  0.49185500  0.64480472     0.13400
N1390       N  0.80452572  0.33268594  0.58791444    -0.02900
C1391       C  0.78379884  0.31053454  0.58640542    -0.00300
C1392       C  0.77194528  0.29990598  0.61493032    -0.23200
C1393       C  0.78577769  0.31575974  0.63488811    -0.23400
C1394       C  0.80570263  0.33562541  0.61795569    -0.00400
H1395       H  0.75530104  0.28218076  0.62070647     0.13400
H1396       H  0.78225530  0.31265753  0.65943229     0.13400
N1397       N  0.81338473  0.48997016  0.04837881    -0.02900
C1398       C  0.78867998  0.47991848  0.04911886    -0.00300
C1399       C  0.77495631  0.45784657  0.58159567    -0.23200
C1400       C  0.79328847  0.45919383  0.60017503    -0.23400
C1401       C  0.81481612  0.47546050  0.58344518    -0.00400
H1402       H  0.75584992  0.44864732  0.58854670     0.13400
H1403       H  0.79128724  0.45059594  0.62399535     0.13400
N1404       N  0.15197004  0.66618790  0.03298809    -0.02900
C1405       C  0.17456832  0.68685783  0.02882797    -0.00300
C1406       C  0.18651662  0.68979667  0.55450785    -0.23200
C1407       C  0.17178054  0.67078479  0.57718978    -0.23400
C1408       C  0.15131430  0.65443986  0.56308273    -0.00400
H1409       H  0.20385693  0.70606035  0.55760618     0.13400
H1410       H  0.17512230  0.66952699  0.60156507     0.13400
O1411       O  0.53918490  0.51776191  0.62950824    -0.74700
O1412       O  0.51386694  0.51779207  0.59129680    -0.53600
C1413       C  0.53334814  0.51793910  0.60106046     0.79000
O1414       O  0.45122095  0.43831363  0.73417468    -0.59300
O1415       O  0.45944979  0.46554339  0.76627265    -0.52300
C1416       C  0.45327031  0.44392518  0.76130091     0.71000
O1417       O  0.45384504  0.44600015  0.62984678    -0.73900
O1418       O  0.46593053  0.47848356  0.59102156    -0.54400
C1419       C  0.45799496  0.45564667  0.60115182     0.77000
O1420       O  0.53599030  0.51608532  0.73228133    -0.59000
O1421       O  0.50525852  0.50781489  0.76459650    -0.52100
C1422       C  0.52656269  0.51163040  0.75947018     0.73600
Zr1423     Zr  0.52344172  0.51824440  0.67832646     2.54700
O1424       O  0.54180837  0.49292605  0.68764889    -0.79600
O1425       O  0.56335525  0.55610834  0.67345935    -0.93000
Zr1426     Zr  0.45659425  0.45813755  0.68023682     2.64700
O1427       O  0.47517515  0.43313199  0.68310694    -0.97900
O1428       O  0.41539665  0.42234611  0.68191635    -0.80000
O1429       O  0.49138338  0.49012426  0.65015771    -0.83400
O1430       O  0.48901180  0.48562913  0.70820155    -2.18100
O1431       O  0.49483812  0.57175164  0.71822984    -0.66700
O1432       O  0.48521514  0.53941767  0.75680641    -0.51300
C1433       C  0.49115184  0.56176682  0.74685863     0.72000
O1434       O  0.41377252  0.50124076  0.61947884    -0.59700
O1435       O  0.44287413  0.50811914  0.58533841    -0.51600
C1436       C  0.42165654  0.50426076  0.59197126     0.73800
O1437       O  0.41001693  0.49622776  0.72238599    -0.71100
O1438       O  0.43713405  0.49765212  0.75866014    -0.49700
C1439       C  0.41670336  0.49561790  0.75054454     0.75200
O1440       O  0.49312987  0.57759667  0.61313303    -0.66400
O1441       O  0.48926635  0.55115982  0.58199868    -0.53600
C1442       C  0.49207821  0.57168440  0.58620931     0.73600
Zr1443     Zr  0.49422436  0.56036060  0.66764009     2.77500
O1444       O  0.48276994  0.59110798  0.66709444    -0.97100
O1445       O  0.53667019  0.59409205  0.66231872    -0.78000
Zr1446     Zr  0.42738884  0.50025619  0.67186366     2.70100
O1447       O  0.41147656  0.52780830  0.66435960    -0.79200
O1448       O  0.38686576  0.46346270  0.67343204    -0.98300
Zr1449     Zr  0.47785719  0.51312409  0.61599768     2.21500
Zr1450     Zr  0.47266595  0.50457395  0.73223399     2.11100
O1451       O  0.45964973  0.52857704  0.69883671    -2.47000
O1452       O  0.46161082  0.53224498  0.64042091    -0.79000
O1453       O  0.50784753  0.53769968  0.70282091    -0.71200
O1454       O  0.44281739  0.48095375  0.64645057    -2.32100
O1455       O  0.51096236  0.54192296  0.64286365    -2.28400
O1456       O  0.43958561  0.47593391  0.70581862    -0.72900
H1457       H  0.49424428  0.47657075  0.72311261     0.79000
H1458       H  0.43043870  0.47027043  0.63375956     0.80100
H1459       H  0.45335565  0.53580919  0.71025238     0.82400
H1460       H  0.52418711  0.55419035  0.62865025     0.80000
H1461       H  0.41775954  0.40821564  0.68292200     0.43000
H1462       H  0.38264564  0.45668886  0.69556564     0.42000
H1463       H  0.42378504  0.54246434  0.67319500     0.41700
H1464       H  0.49364265  0.60513632  0.65118320     0.39600
H1465       H  0.53586571  0.60888278  0.65360184     0.42700
H1466       H  0.56287968  0.56642865  0.65436302     0.37500
H1467       H  0.52773160  0.47575458  0.69049135     0.43600
H1468       H  0.48435436  0.43578852  0.70229657     0.40000
H1469       H  0.46635898  0.58385074  0.65828054     0.45000
H1470       H  0.57478254  0.55112824  0.66823120     0.43700
H1471       H  0.46134599  0.41587635  0.68745854     0.43800
H1472       H  0.37590160  0.46983445  0.66691614     0.44200
N1473       N  0.43536148  0.32427902  0.95295200    -0.02900
C1474       C  0.43340498  0.30196789  0.96100895    -0.00300
C1475       C  0.42409112  0.29172855  0.99083023    -0.23200
C1476       C  0.41998927  0.30807849  0.00161847    -0.23400
C1477       C  0.42697210  0.32774607  0.97798694    -0.00400
H1478       H  0.42132083  0.27451900  0.00363993     0.13400
H1479       H  0.42387609  0.31428062  0.53083910     0.13400
N1480       N  0.31035107  0.51074534  0.92544353    -0.02900
C1481       C  0.29060882  0.51339908  0.92542751    -0.00300
C1482       C  0.28634309  0.52081083  0.89553253    -0.23200
C1483       C  0.30383563  0.52278391  0.87675507    -0.23400
C1484       C  0.31825617  0.51653362  0.89568799    -0.00400
H1485       H  0.27120164  0.52314032  0.88801046     0.13400
H1486       H  0.30503262  0.52687008  0.85186960     0.13400
N1487       N  0.62583499  0.48204787  0.95962214    -0.02900
C1488       C  0.64046283  0.47227612  0.96367753    -0.00300
C1489       C  0.63733632  0.45915184  0.94026523    -0.23200
C1490       C  0.62059244  0.46092379  0.92107521    -0.23400
C1491       C  0.61396242  0.47507511  0.93328857    -0.00400
H1492       H  0.64790107  0.45111174  0.93604789     0.13400
H1493       H  0.61484317  0.45380464  0.89965092     0.13400
N1494       N  0.48665572  0.67785757  0.89753319    -0.02900
C1495       C  0.49161618  0.70138858  0.89012171    -0.00300
C1496       C  0.48662475  0.70622550  0.85971300    -0.23200
C1497       C  0.47887273  0.68534113  0.84760591    -0.23400
C1498       C  0.47908914  0.66827845  0.87108523    -0.00400
H1499       H  0.48956384  0.72361037  0.84727200     0.13400
H1500       H  0.47503410  0.68333224  0.82372139     0.13400
C1501       C  0.38842988  0.48692359  0.82938041    -0.21900
C1502       C  0.37296174  0.49606597  0.82120145     0.10100
C1503       C  0.36980318  0.50247792  0.78978807     0.10500
C1504       C  0.38354641  0.50121720  0.76723693    -0.16800
C1505       C  0.40038576  0.49355641  0.77527848    -0.27200
C1506       C  0.40206625  0.48537798  0.80695307     0.18800
C1507       C  0.36143789  0.50047076  0.84563859     0.12800
C1508       C  0.35193724  0.51073599  0.78010567    -0.11600
H1509       H  0.38167567  0.50707652  0.74324300     0.13100
C1510       C  0.41796184  0.47482037  0.81769650    -0.22400
H1511       H  0.39039749  0.48167224  0.85356557     0.08700
C1512       C  0.34068149  0.48117527  0.86333083     0.05000
C1513       C  0.32834574  0.48701263  0.88248921    -0.19600
C1514       C  0.33600527  0.51163715  0.88361703    -0.11900
C1515       C  0.35775187  0.53080923  0.86762569     0.13800
C1516       C  0.37044078  0.52493640  0.84923917    -0.22400
C1517       C  0.33069963  0.45463381  0.86057145    -0.05400
H1518       H  0.31154456  0.47239090  0.89467408     0.15300
C1519       C  0.36753526  0.55762233  0.86857210    -0.15600
H1520       H  0.38672161  0.53967766  0.83613865     0.09600
H1521       H  0.41376393  0.45964693  0.80502414     0.07500
H1522       H  0.41483695  0.46708469  0.84262821     0.08700
H1523       H  0.43756105  0.48942562  0.81421130     0.07700
H1524       H  0.35742312  0.52804523  0.78872848     0.02600
H1525       H  0.33336896  0.49619436  0.78959860     0.03100
H1526       H  0.35106682  0.51426073  0.75467731     0.06600
H1527       H  0.31403839  0.44195310  0.87554315     0.05600
H1528       H  0.34461402  0.44957644  0.86750648    -0.00200
H1529       H  0.32586690  0.45192061  0.83640532     0.01300
H1530       H  0.38636243  0.56612810  0.87722756     0.04900
H1531       H  0.35633251  0.56037776  0.88382989     0.06900
H1532       H  0.36807936  0.56734588  0.84501896     0.07700
C1533       C  0.38893085  0.49831122  0.51525633    -0.21900
C1534       C  0.37183734  0.50457097  0.52149894     0.10100
C1535       C  0.37086371  0.51014887  0.55066145     0.10500
C1536       C  0.38719601  0.50964400  0.57287553    -0.16800
C1537       C  0.40484570  0.50388639  0.56678782    -0.27200
C1538       C  0.40545556  0.49784716  0.53747807     0.18800
C1539       C  0.35640390  0.50712033  0.49650053     0.12800
C1540       C  0.35296209  0.51726473  0.55807293    -0.11600
H1541       H  0.38641710  0.51434422  0.59505835     0.13100
C1542       C  0.42292803  0.49038405  0.52949198    -0.22400
H1543       H  0.38954595  0.49412728  0.49265937     0.08700
C1544       C  0.36169498  0.52951364  0.97980307     0.05000
C1545       C  0.34616346  0.53021187  0.95645063    -0.19600
C1546       C  0.32452463  0.50876073  0.95103589    -0.11900
C1547       C  0.31697928  0.48995472  0.47152821     0.13800
C1548       C  0.33201132  0.48802077  0.49503900    -0.22400
C1549       C  0.38394682  0.55328078  0.98585387    -0.05400
H1550       H  0.35065151  0.54765802  0.94244737     0.15300
C1551       C  0.29140957  0.46842062  0.47051920    -0.15600
H1552       H  0.32479546  0.47139636  0.51206976     0.09600
H1553       H  0.44205016  0.50599872  0.52944814     0.07500
H1554       H  0.41983189  0.48501394  0.50627527     0.08700
H1555       H  0.42039038  0.47429806  0.54643734     0.07700
H1556       H  0.33399790  0.50196942  0.55580271     0.02600
H1557       H  0.34124801  0.51443986  0.05322509     0.03100
H1558       H  0.35471823  0.52127605  0.58190437     0.06600
H1559       H  0.38522595  0.56953100  0.97052577     0.05600
H1560       H  0.40464797  0.54399722  0.47290390    -0.00200
H1561       H  0.38306560  0.55557168  0.01004151     0.01300
H1562       H  0.29199357  0.45154516  0.46997465     0.04900
H1563       H  0.28495973  0.46501621  0.94495418     0.06900
H1564       H  0.28071579  0.46553656  0.49138203     0.07700
C1565       C  0.50270676  0.61374332  0.78867740    -0.21900
C1566       C  0.48664179  0.60013961  0.81430462     0.10100
C1567       C  0.47347510  0.57424543  0.81871707     0.10500
C1568       C  0.47622989  0.56243657  0.79682653    -0.16800
C1569       C  0.49160094  0.57591620  0.77031138    -0.27200
C1570       C  0.50544611  0.60199363  0.76654251     0.18800
C1571       C  0.48256051  0.61361642  0.83475660     0.12800
C1572       C  0.45634242  0.55909998  0.84629720    -0.11600
H1573       H  0.46547736  0.54246719  0.79997590     0.13100
C1574       C  0.52323678  0.61760916  0.73968088    -0.22400
H1575       H  0.51266616  0.63371782  0.78562971     0.08700
C1576       C  0.50043663  0.62715864  0.85506116     0.05000
C1577       C  0.49735291  0.64291687  0.87013800    -0.19600
C1578       C  0.47697921  0.64553806  0.86481231    -0.11900
C1579       C  0.45812370  0.63031502  0.84648364     0.13800
C1580       C  0.46124229  0.61461616  0.83151766    -0.22400
C1581       C  0.52312941  0.62569365  0.85979086    -0.05400
H1582       H  0.51193053  0.65481360  0.88384599     0.15300
C1583       C  0.43500262  0.63097127  0.84118476    -0.15600
H1584       H  0.44744977  0.60391996  0.81608297     0.09600
H1585       H  0.53647527  0.61156028  0.73824822     0.07500
H1586       H  0.53378921  0.63741413  0.74205553     0.08700
H1587       H  0.51333222  0.61616010  0.71795271     0.07700
H1588       H  0.44136205  0.56297886  0.84608252     0.02600
H1589       H  0.46654107  0.56372569  0.86772970     0.03100
H1590       H  0.44790932  0.53900282  0.84651169     0.06600
H1591       H  0.53504285  0.63719330  0.87685094     0.05600
H1592       H  0.53387242  0.63229459  0.83776686    -0.00200
H1593       H  0.51792607  0.60629697  0.86832516     0.01300
H1594       H  0.43365019  0.64313677  0.85495457     0.04900
H1595       H  0.41892849  0.61213082  0.84781467     0.06900
H1596       H  0.43413366  0.63750345  0.81643746     0.07700
C1597       C  0.49824605  0.60377883  0.50244838    -0.21900
C1598       C  0.48952269  0.61928977  0.50529941     0.10100
C1599       C  0.48284493  0.62014665  0.53477504     0.10500
C1600       C  0.48477948  0.60521242  0.56077344    -0.16800
C1601       C  0.49289761  0.58899812  0.55808964    -0.27200
C1602       C  0.50004159  0.58865483  0.52823597     0.18800
C1603       C  0.48699740  0.63401685  0.47695870     0.12800
C1604       C  0.47358344  0.63680691  0.53869999    -0.11600
H1605       H  0.47917594  0.60569548  0.58322140     0.13100
C1606       C  0.51011756  0.57291758  0.52301840    -0.22400
H1607       H  0.50339762  0.60329781  0.47970926     0.08700
C1608       C  0.50735454  0.65581841  0.46174775     0.05000
C1609       C  0.51032143  0.67331884  0.94174191    -0.19600
C1610       C  0.48793433  0.66486352  0.92711201    -0.11900
C1611       C  0.46699780  0.64292891  0.94118197     0.13800
C1612       C  0.46932730  0.62897339  0.96782867    -0.22400
C1613       C  0.53257459  0.66530544  0.47403127    -0.05400
H1614       H  0.52623577  0.69035003  0.93132248     0.15300
C1615       C  0.44172108  0.63429778  0.92943409    -0.15600
H1616       H  0.45334068  0.61182258  0.97793375     0.09600
H1617       H  0.51677836  0.57681510  0.49883291     0.07500
H1618       H  0.49572056  0.55308770  0.52780640     0.08700
H1619       H  0.52580739  0.57678566  0.53803605     0.07700
H1620       H  0.45647986  0.63144089  0.52609584     0.02600
H1621       H  0.48754515  0.65621308  0.52947842     0.03100
H1622       H  0.46959385  0.63571001  0.56327128     0.06600
H1623       H  0.54638846  0.68273356  0.45967338     0.05600
H1624       H  0.53798049  0.65144911  0.47432260    -0.00200
H1625       H  0.53273808  0.66891241  0.49779881     0.01300
H1626       H  0.44125697  0.64755543  0.91022126     0.04900
H1627       H  0.43430695  0.61625546  0.92171080     0.06900
H1628       H  0.42957953  0.63208156  0.94824964     0.07700
C1629       C  0.56748376  0.49825031  0.81579872    -0.21900
C1630       C  0.56039085  0.50103089  0.84355421     0.10100
C1631       C  0.54356981  0.50886045  0.84342384     0.10500
C1632       C  0.53387707  0.51333825  0.81540097    -0.16800
C1633       C  0.54030230  0.50984945  0.78737391    -0.27200
C1634       C  0.55754836  0.50226597  0.78777380     0.18800
C1635       C  0.57104925  0.49534311  0.87216256     0.12800
C1636       C  0.53568440  0.51224500  0.87280392    -0.11600
H1637       H  0.52076763  0.51915622  0.81556470     0.13100
C1638       C  0.56478759  0.49708389  0.75934799    -0.22400
H1639       H  0.58050472  0.49225073  0.81627856     0.08700
C1640       C  0.56067238  0.47099984  0.88824684     0.05000
C1641       C  0.57425594  0.46527498  0.91054261    -0.19600
C1642       C  0.59796829  0.48333857  0.91702013    -0.11900
C1643       C  0.60766756  0.50801064  0.90223993     0.13800
C1644       C  0.59399248  0.51373775  0.88011397    -0.22400
C1645       C  0.53577479  0.45088380  0.88082876    -0.05400
H1646       H  0.56695028  0.44633386  0.92166570     0.15300
C1647       C  0.63306651  0.52803233  0.90806316    -0.15600
H1648       H  0.60184809  0.53235615  0.86754696     0.09600
H1649       H  0.54832552  0.48249433  0.74966852     0.07500
H1650       H  0.57775091  0.49047945  0.76441152     0.08700
H1651       H  0.57396034  0.51416039  0.74203549     0.07700
H1652       H  0.55184472  0.52625285  0.88361619     0.02600
H1653       H  0.52683194  0.49455270  0.88906419     0.03100
H1654       H  0.52241320  0.51851910  0.86860515     0.06600
H1655       H  0.53045133  0.43283340  0.89530225     0.05600
H1656       H  0.53556112  0.44881465  0.85632774    -0.00200
H1657       H  0.52199327  0.45564443  0.88505080     0.01300
H1658       H  0.63830760  0.54588191  0.89311839     0.04900
H1659       H  0.64655195  0.52289807  0.90361767     0.06900
H1660       H  0.63380988  0.53082698  0.93219219     0.07700
C1661       C  0.56503092  0.52053654  0.52713059    -0.21900
C1662       C  0.58333244  0.51617020  0.53945920     0.10100
C1663       C  0.58549195  0.51293438  0.57162546     0.10500
C1664       C  0.56908911  0.51367534  0.59073999    -0.16800
C1665       C  0.55035121  0.51780235  0.57872276    -0.27200
C1666       C  0.54859815  0.52144571  0.54612313     0.18800
C1667       C  0.59938679  0.51400635  0.51841715     0.12800
C1668       C  0.60498806  0.50834630  0.58580593    -0.11600
H1669       H  0.57094512  0.51077484  0.61540888     0.13100
C1670       C  0.52983577  0.52666603  0.53078552    -0.22400
H1671       H  0.56350925  0.52308145  0.50235447     0.08700
C1672       C  0.59094295  0.49225394  0.50594494     0.05000
C1673       C  0.59099575  0.46862191  0.99404070    -0.19600
C1674       C  0.61520648  0.48649685  0.98397291    -0.11900
C1675       C  0.62736016  0.50863831  0.99637424     0.13800
C1676       C  0.62343232  0.53378104  0.51103169    -0.22400
C1677       C  0.56549393  0.47038299  0.51359600    -0.05400
H1678       H  0.58188914  0.45142696  0.98503638     0.15300
C1679       C  0.65349102  0.52836576  0.98776210    -0.15600
H1680       H  0.63000747  0.55048602  0.52061186     0.09600
H1681       H  0.53190859  0.53008321  0.50530043     0.07500
H1682       H  0.53205437  0.54341213  0.53780362     0.08700
H1683       H  0.51114777  0.51068397  0.53721894     0.07700
H1684       H  0.62332573  0.52430010  0.57769838     0.02600
H1685       H  0.60277591  0.49146589  0.57906968     0.03100
H1686       H  0.60404157  0.50578343  0.61132311     0.06600
H1687       H  0.56194789  0.45469496  0.50238557     0.05600
H1688       H  0.55181901  0.47556376  0.50560046    -0.00200
H1689       H  0.56300462  0.46406752  0.53886598     0.01300
H1690       H  0.65466305  0.54618320  0.97897620     0.04900
H1691       H  0.66127507  0.52418124  0.96959455     0.06900
H1692       H  0.66475133  0.53048191  0.00838590     0.07700
C1693       C  0.43699897  0.38241647  0.81278733    -0.21900
C1694       C  0.44647573  0.39016313  0.84084766     0.10100
C1695       C  0.45732299  0.41533311  0.84310934     0.10500
C1696       C  0.45882749  0.43220283  0.81709933    -0.16800
C1697       C  0.44953397  0.42462903  0.78860023    -0.27200
C1698       C  0.43801734  0.39906273  0.78683169     0.18800
C1699       C  0.44326882  0.37132336  0.86810446     0.12800
C1700       C  0.46691392  0.42431662  0.87317547    -0.11600
H1701       H  0.46759033  0.45151764  0.81911166     0.13100
C1702       C  0.42609659  0.38869290  0.75816482    -0.22400
H1703       H  0.42845039  0.36301476  0.81133489     0.08700
C1704       C  0.42009878  0.35490706  0.88292531     0.05000
C1705       C  0.41798467  0.33860820  0.90976670    -0.19600
C1706       C  0.43842597  0.33838090  0.92261557    -0.11900
C1707       C  0.46158952  0.35452589  0.90760514     0.13800
C1708       C  0.46366305  0.37047823  0.88019711    -0.22400
C1709       C  0.39770309  0.35524854  0.87121308    -0.05400
H1710       H  0.40035141  0.32651453  0.92168755     0.15300
C1711       C  0.48451623  0.35630548  0.92075127    -0.15600
H1712       H  0.48147364  0.38304120  0.86886201     0.09600
H1713       H  0.41244291  0.39404711  0.75076495     0.07500
H1714       H  0.41635739  0.36823260  0.76204391     0.08700
H1715       H  0.44010637  0.39542523  0.73953575     0.07700
H1716       H  0.48154345  0.42047552  0.88072138     0.02600
H1717       H  0.45189041  0.41466859  0.89103581     0.03100
H1718       H  0.47463806  0.44447367  0.87118563     0.06600
H1719       H  0.38129032  0.34192314  0.88629795     0.05600
H1720       H  0.39385537  0.35020757  0.84784985    -0.00200
H1721       H  0.40065668  0.37394635  0.87033076     0.01300
H1722       H  0.49271928  0.35067326  0.90477019     0.04900
H1723       H  0.48110496  0.34457898  0.94352712     0.06900
H1724       H  0.49782877  0.37563899  0.92376909     0.07700
C1725       C  0.42117638  0.37869707  0.50151677    -0.21900
C1726       C  0.44467507  0.39704369  0.50800639     0.10100
C1727       C  0.46523987  0.39668445  0.49904228     0.10500
C1728       C  0.45401901  0.37168983  0.98143178    -0.16800
C1729       C  0.43011524  0.35128176  0.98287763    -0.27200
C1730       C  0.41760475  0.35829795  0.48959883     0.18800
C1731       C  0.44695788  0.41212157  0.53101949     0.12800
C1732       C  0.49081604  0.41683100  0.50436601    -0.11600
H1733       H  0.46861540  0.37112348  0.97112290     0.13100
C1734       C  0.39188242  0.33856223  0.48428215    -0.22400
H1735       H  0.40546417  0.37925585  0.50815359     0.08700
C1736       C  0.44935000  0.43534241  0.52314560     0.05000
C1737       C  0.45276735  0.44895873  0.54655547    -0.19600
C1738       C  0.45345517  0.43967448  0.57779918    -0.11900
C1739       C  0.45049465  0.41589514  0.58541773     0.13800
C1740       C  0.44730222  0.40257942  0.56184059    -0.22400
C1741       C  0.44825654  0.44563530  0.49019841    -0.05400
H1742       H  0.45493525  0.46700860  0.54022664     0.15300
C1743       C  0.45127609  0.40435046  0.61789592    -0.15600
H1744       H  0.44535988  0.38455810  0.56736643     0.09600
H1745       H  0.38338981  0.34675972  0.46765867     0.07500
H1746       H  0.38099658  0.33069591  0.50632396     0.08700
H1747       H  0.38199315  0.31786209  0.98183227     0.07700
H1748       H  0.49326602  0.41781632  0.52929375     0.02600
H1749       H  0.49414380  0.43481546  0.49177679     0.03100
H1750       H  0.49795428  0.41057355  0.98107113     0.06600
H1751       H  0.45049366  0.46415091  0.48801364     0.05600
H1752       H  0.43029365  0.43311609  0.48099831    -0.00200
H1753       H  0.44125992  0.43511612  0.98047120     0.01300
H1754       H  0.43596397  0.40136389  0.63219269     0.04900
H1755       H  0.46907949  0.41637998  0.62778672     0.06900
H1756       H  0.44936474  0.38607145  0.61886275     0.07700
C1757       C  0.68901001  0.47451572  0.01840152    -0.21900
C1758       C  0.70998114  0.48983074  0.99894099     0.10100
C1759       C  0.70797020  0.50239464  0.97050824     0.10500
C1760       C  0.68508761  0.49897883  0.96195644    -0.16800
C1761       C  0.66375005  0.48214492  0.98015277    -0.27200
C1762       C  0.66584361  0.47021991  0.00913025     0.18800
C1763       C  0.73296467  0.48991432  0.00693705     0.12800
C1764       C  0.72941427  0.51759145  0.94785611    -0.11600
H1765       H  0.68338235  0.50760944  0.93936461     0.13100
C1766       C  0.64854218  0.46469189  0.50721329    -0.22400
H1767       H  0.68963252  0.46691039  0.52781896     0.08700
C1768       C  0.75270151  0.50898501  0.02020612     0.05000
C1769       C  0.77334393  0.50721918  0.02867473    -0.19600
C1770       C  0.77403337  0.48605817  0.02621339    -0.11900
C1771       C  0.75449390  0.46734292  0.01214627     0.13800
C1772       C  0.73452387  0.46975716  0.00210668    -0.22400
C1773       C  0.75108648  0.53001789  0.02804626    -0.05400
H1774       H  0.78774207  0.52107483  0.04066991     0.15300
C1775       C  0.75342685  0.44383944  0.00925141    -0.15600
H1776       H  0.71940204  0.45511746  0.99187310     0.09600
H1777       H  0.64471562  0.46083575  0.53242025     0.07500
H1778       H  0.64658011  0.44810653  0.49988085     0.08700
H1779       H  0.63467058  0.46823102  0.49561170     0.07700
H1780       H  0.73599711  0.50585405  0.94179662     0.02600
H1781       H  0.74452792  0.53312534  0.95782668     0.03100
H1782       H  0.72442687  0.52544254  0.92627303     0.06600
H1783       H  0.75821272  0.52599445  0.57921750     0.05600
H1784       H  0.72690295  0.50896556  0.56859380    -0.00200
H1785       H  0.74877370  0.54068681  0.00704767     0.01300
H1786       H  0.73728304  0.42792000  0.02267847     0.04900
H1787       H  0.76994486  0.44370119  0.01776632     0.06900
H1788       H  0.75172973  0.44150738  0.98470116     0.07700
C1789       C  0.20624776  0.50872862  0.00378343    -0.21900
C1790       C  0.21193473  0.49013178  0.00766882     0.10100
C1791       C  0.20309403  0.47452794  0.52913479     0.10500
C1792       C  0.18496946  0.47243147  0.54795349    -0.16800
C1793       C  0.17877174  0.49071271  0.54445180    -0.27200
C1794       C  0.18953922  0.50795082  0.02396928     0.18800
C1795       C  0.23221380  0.49370768  0.98848008     0.12800
C1796       C  0.21106302  0.45596402  0.53605684    -0.11600
H1797       H  0.17686328  0.45734151  0.56713833     0.13100
C1798       C  0.18651605  0.52987364  0.02130052    -0.22400
H1799       H  0.21592296  0.52456434  0.98583316     0.08700
C1800       C  0.22785142  0.48181911  0.96278260     0.05000
C1801       C  0.24778548  0.48688576  0.94470465    -0.19600
C1802       C  0.27201525  0.50431348  0.95078706    -0.11900
C1803       C  0.27632039  0.51598281  0.97682524     0.13800
C1804       C  0.25634761  0.51036048  0.99543661    -0.22400
C1805       C  0.20222144  0.46510317  0.95315085    -0.05400
H1806       H  0.24434858  0.47827487  0.92441844     0.15300
C1807       C  0.30158960  0.53500997  0.98464119    -0.15600
H1808       H  0.25949351  0.51945847  0.01520708     0.09600
H1809       H  0.16752263  0.52444565  0.01544322     0.07500
H1810       H  0.19881724  0.54500881  0.00293447     0.08700
H1811       H  0.19088610  0.53718141  0.04334623     0.07700
H1812       H  0.23073252  0.46543244  0.54143328     0.02600
H1813       H  0.20827925  0.44666092  0.51595343     0.03100
H1814       H  0.20059444  0.44157491  0.55610130     0.06600
H1815       H  0.20216942  0.45804491  0.93184004     0.05600
H1816       H  0.19256112  0.47542565  0.94864224    -0.00200
H1817       H  0.19190572  0.44899705  0.97140779     0.01300
H1818       H  0.30111474  0.54446336  0.00320535     0.04900
H1819       H  0.31122671  0.54926342  0.96416863     0.06900
H1820       H  0.31505418  0.52900891  0.49202451     0.07700
C1821       C  0.91866356  0.51819717  0.65878518    -0.21900
C1822       C  0.89375650  0.50786476  0.66527126     0.10100
C1823       C  0.88512604  0.50197552  0.69605485     0.10500
C1824       C  0.90152925  0.50572784  0.71985301    -0.16800
C1825       C  0.92629453  0.51460199  0.71369435    -0.27200
C1826       C  0.93512331  0.52155934  0.68257980     0.18800
C1827       C  0.87657966  0.50137292  0.63982049     0.12800
C1828       C  0.85843370  0.49095693  0.70383526    -0.11600
H1829       H  0.89461247  0.50029636  0.74349484     0.13100
C1830       C  0.96170922  0.53247301  0.67405731    -0.22400
H1831       H  0.92505161  0.52277813  0.63499342     0.08700
C1832       C  0.87030408  0.51805637  0.62349701     0.05000
C1833       C  0.85147775  0.50973205  0.60242689    -0.19600
C1834       C  0.83889022  0.48510838  0.59758701    -0.11900
C1835       C  0.84654418  0.46903014  0.61227823     0.13800
C1836       C  0.86518882  0.47733391  0.63338947    -0.22400
C1837       C  0.88271800  0.54420186  0.62941166    -0.05400
H1838       H  0.84538467  0.52195883  0.59147260     0.15300
C1839       C  0.83509168  0.44290305  0.60663756    -0.15600
H1840       H  0.87029589  0.46471823  0.64580689     0.09600
H1841       H  0.97330850  0.54852222  0.68589381     0.07500
H1842       H  0.96548019  0.53898401  0.64889249     0.08700
H1843       H  0.96700582  0.51844727  0.68042554     0.07700
H1844       H  0.84740748  0.47309455  0.69535336     0.02600
H1845       H  0.85242341  0.50374064  0.69286776     0.03100
H1846       H  0.85479141  0.48751695  0.72905334     0.06600
H1847       H  0.87555342  0.55481797  0.61484472     0.05600
H1848       H  0.90264389  0.55361654  0.62421507    -0.00200
H1849       H  0.87971836  0.54429977  0.65390586     0.01300
H1850       H  0.84952801  0.44013964  0.59889280     0.04900
H1851       H  0.82126021  0.43833690  0.58866282     0.06900
H1852       H  0.82624558  0.43000928  0.62833173     0.07700
C1853       C  0.90241746  0.49923200  0.97315138    -0.21900
C1854       C  0.88530323  0.50549408  0.96122113     0.10100
C1855       C  0.88642475  0.51429985  0.92951836     0.10500
C1856       C  0.90433647  0.51624278  0.91032972    -0.16800
C1857       C  0.92116187  0.50916605  0.92176184    -0.27200
C1858       C  0.92021810  0.50076416  0.95402285     0.18800
C1859       C  0.86562262  0.50159345  0.98205686     0.12800
C1860       C  0.86814935  0.52090299  0.91575551    -0.11600
H1861       H  0.90471598  0.52284302  0.88596910     0.13100
C1862       C  0.93712672  0.49254293  0.96877075    -0.22400
H1863       H  0.90139136  0.49248392  0.99759588     0.08700
C1864       C  0.84491339  0.47790489  0.99105771     0.05000
C1865       C  0.82684695  0.47497120  0.01092356    -0.19600
C1866       C  0.82898846  0.49505161  0.02238204    -0.11900
C1867       C  0.84954575  0.51880367  0.01293574     0.13800
C1868       C  0.86757866  0.52181428  0.99287293    -0.22400
C1869       C  0.84213096  0.45563268  0.98021841    -0.05400
H1870       H  0.81165742  0.45665105  0.01911446     0.15300
C1871       C  0.85300255  0.54120514  0.02396281    -0.15600
H1872       H  0.88343279  0.54002258  0.98591908     0.09600
H1873       H  0.93337815  0.48635606  0.99397522     0.07500
H1874       H  0.95638738  0.50804520  0.96529216     0.08700
H1875       H  0.93462163  0.47672129  0.95881870     0.07700
H1876       H  0.86950652  0.53600571  0.92633599     0.02600
H1877       H  0.84938720  0.50453072  0.92005338     0.03100
H1878       H  0.87131017  0.52718672  0.89050649     0.06600
H1879       H  0.82473659  0.43856053  0.98909599     0.05600
H1880       H  0.85739974  0.45294039  0.98840172    -0.00200
H1881       H  0.84227380  0.45827002  0.95468629     0.01300
H1882       H  0.86994099  0.54940997  0.03717238     0.04900
H1883       H  0.83735556  0.53683988  0.03874090     0.06900
H1884       H  0.85476530  0.55506200  0.00386391     0.07700
C1885       C  0.88525916  0.38480711  0.72090780    -0.21900
C1886       C  0.88326169  0.39706349  0.69243427     0.10100
C1887       C  0.89806932  0.42291760  0.68540753     0.10500
C1888       C  0.91402395  0.43609260  0.70737395    -0.16800
C1889       C  0.91587173  0.42406747  0.73632466    -0.27200
C1890       C  0.90140771  0.39790780  0.74296575     0.18800
C1891       C  0.86432207  0.38273209  0.67113898     0.12800
C1892       C  0.89708099  0.43655514  0.65456294    -0.11600
H1893       H  0.92487860  0.45603973  0.70195797     0.13100
C1894       C  0.90307187  0.38353760  0.77281715    -0.22400
H1895       H  0.87381532  0.36488754  0.72603493     0.08700
C1896       C  0.86816405  0.37023425  0.65077218     0.05000
C1897       C  0.84930261  0.35655177  0.63161574    -0.19600
C1898       C  0.82658372  0.35478249  0.63281523    -0.11900
C1899       C  0.82307695  0.36797967  0.65264371     0.13800
C1900       C  0.84200798  0.38179394  0.67144805    -0.22400
C1901       C  0.89194704  0.37092370  0.64979385    -0.05400
H1902       H  0.85183681  0.34610531  0.61688679     0.15300
C1903       C  0.79959056  0.36783390  0.65475440    -0.15600
H1904       H  0.83923700  0.39169834  0.68682513     0.09600
H1905       H  0.89182829  0.36333127  0.77293615     0.07500
H1906       H  0.89626107  0.38749535  0.79233531     0.08700
H1907       H  0.92231484  0.38848201  0.77631905     0.07700
H1908       H  0.87821948  0.43266726  0.65074196     0.02600
H1909       H  0.90254560  0.43036730  0.63610473     0.03100
H1910       H  0.90952624  0.45681613  0.65285849     0.06600
H1911       H  0.89202226  0.36029037  0.63247579     0.05600
H1912       H  0.89501260  0.36283963  0.67266357    -0.00200
H1913       H  0.90722037  0.39029573  0.64370901     0.01300
H1914       H  0.79135757  0.35957106  0.67839995     0.04900
H1915       H  0.78594143  0.35742005  0.63828382     0.06900
H1916       H  0.80348454  0.38702819  0.64971069     0.07700
C1917       C  0.90339222  0.40345075  0.99410035    -0.21900
C1918       C  0.87860186  0.39339804  0.98765245     0.10100
C1919       C  0.87198526  0.39905563  0.95775344     0.10500
C1920       C  0.89030232  0.41461312  0.93491791    -0.16800
C1921       C  0.91523931  0.42503513  0.94119220    -0.27200
C1922       C  0.92181657  0.41926279  0.97125321     0.18800
C1923       C  0.85980469  0.37809871  0.01283580     0.12800
C1924       C  0.84555186  0.38872846  0.94997555    -0.11600
H1925       H  0.88507629  0.41897913  0.91201159     0.13100
C1926       C  0.94805012  0.42902342  0.97915036    -0.22400
H1927       H  0.90830540  0.39903568  0.01718445     0.08700
C1928       C  0.84998239  0.35244205  0.02087718     0.05000
C1929       C  0.83183371  0.33888278  0.04455332    -0.19600
C1930       C  0.82220594  0.34886308  0.56305075    -0.11900
C1931       C  0.82964282  0.37414014  0.55495394     0.13800
C1932       C  0.85075454  0.38947877  0.02781085    -0.22400
C1933       C  0.85845827  0.33941127  0.00423662    -0.05400
H1934       H  0.82472078  0.31932795  0.05143748     0.15300
C1935       C  0.81893424  0.38583571  0.57037383    -0.15600
H1936       H  0.85784029  0.40905915  0.02093246     0.09600
H1937       H  0.94985204  0.42174321  0.00322324     0.07500
H1938       H  0.95792960  0.44941645  0.97667255     0.08700
H1939       H  0.95656228  0.42341116  0.96357826     0.07700
H1940       H  0.83694984  0.39501845  0.96439372     0.02600
H1941       H  0.83566922  0.36826993  0.95431253     0.03100
H1942       H  0.84354566  0.39482800  0.92545106     0.06600
H1943       H  0.84871923  0.31929981  0.01312934     0.05600
H1944       H  0.87833369  0.34710941  0.00717896    -0.00200
H1945       H  0.85495924  0.34196620  0.97933980     0.01300
H1946       H  0.83311652  0.39931497  0.58392559     0.04900
H1947       H  0.80288546  0.37219185  0.58561837     0.06900
H1948       H  0.81259151  0.39562723  0.55269862     0.07700
C1949       C  0.07504173  0.48065130  0.71294302    -0.21900
C1950       C  0.06838050  0.48212564  0.68226818     0.10100
C1951       C  0.04685757  0.48241737  0.67510914     0.10500
C1952       C  0.03257752  0.48158677  0.69888057    -0.16800
C1953       C  0.03949382  0.48094708  0.72989640    -0.27200
C1954       C  0.06127960  0.48046725  0.73678199     0.18800
C1955       C  0.08535800  0.48515199  0.65803596     0.12800
C1956       C  0.03942087  0.48434516  0.64223301    -0.11600
H1957       H  0.01617931  0.48204941  0.69289360     0.13100
C1958       C  0.07111785  0.48085226  0.76868488    -0.22400
H1959       H  0.09175993  0.48057892  0.71805973     0.08700
C1960       C  0.10711657  0.50800044  0.64931395     0.05000
C1961       C  0.12426917  0.50950246  0.62933509    -0.19600
C1962       C  0.12012297  0.48876360  0.61766336    -0.11900
C1963       C  0.09775629  0.46616052  0.62509761     0.13800
C1964       C  0.08058333  0.46466471  0.64517347    -0.22400
C1965       C  0.11242370  0.53069507  0.66156546    -0.05400
H1966       H  0.14151893  0.52672765  0.62379040     0.15300
C1967       C  0.09194600  0.44303010  0.61362818    -0.15600
H1968       H  0.06381139  0.44716022  0.65182432     0.09600
H1969       H  0.07511953  0.49792466  0.77680341     0.07500
H1970       H  0.08844266  0.48080321  0.76925242     0.08700
H1971       H  0.05776846  0.46426616  0.78464949     0.07700
H1972       H  0.03646438  0.46828219  0.63239792     0.02600
H1973       H  0.05404164  0.50156039  0.62842250     0.03100
H1974       H  0.02225271  0.48469935  0.64038986     0.06600
H1975       H  0.13001651  0.54713994  0.65192828     0.05600
H1976       H  0.11351782  0.52779233  0.68698446    -0.00200
H1977       H  0.09765448  0.53463828  0.65530754     0.01300
H1978       H  0.08857847  0.42838682  0.63349811     0.04900
H1979       H  0.10688235  0.44570969  0.59904089     0.06900
H1980       H  0.07527791  0.43663681  0.59986761     0.07700
C1981       C  0.05368227  0.47688159  0.98907177    -0.21900
C1982       C  0.07717941  0.48357798  0.97969752     0.10100
C1983       C  0.08388555  0.49016315  0.94817150     0.10500
C1984       C  0.06688336  0.48993486  0.92661186    -0.16800
C1985       C  0.04329006  0.48360651  0.93570575    -0.27200
C1986       C  0.03667376  0.47697336  0.96758111     0.18800
C1987       C  0.09491866  0.48500243  0.00348430     0.12800
C1988       C  0.10921518  0.49810449  0.93732905    -0.11600
H1989       H  0.07237070  0.49532592  0.90241606     0.13100
C1990       C  0.01163327  0.46909534  0.97929221    -0.22400
H1991       H  0.04879544  0.47188530  0.01345857     0.08700
C1992       C  0.10668088  0.50517915  0.01947497     0.05000
C1993       C  0.12258010  0.50546472  0.04275846    -0.19600
C1994       C  0.12723500  0.48619876  0.05029824    -0.11900
C1995       C  0.11557038  0.46602467  0.03400910     0.13800
C1996       C  0.09969677  0.46581820  0.01056622    -0.22400
C1997       C  0.10263835  0.52652960  0.01170095    -0.05400
H1998       H  0.13210712  0.52360289  0.55806123     0.15300
C1999       C  0.11846697  0.44397146  0.04155836    -0.15600
H2000       H  0.09051715  0.45031153  0.99822442     0.09600
H2001       H  0.00818754  0.48448321  0.97386137     0.07500
H2002       H  0.00933709  0.46316158  0.00464485     0.08700
H2003       H  0.99795301  0.45328646  0.96844119     0.07700
H2004       H  0.11282654  0.48292480  0.94469393     0.02600
H2005       H  0.12290058  0.51455019  0.94731700     0.03100
H2006       H  0.11155021  0.50297504  0.91186456     0.06600
H2007       H  0.11371151  0.54106789  0.02595725     0.05600
H2008       H  0.08310508  0.52005202  0.01579362    -0.00200
H2009       H  0.10788552  0.53491328  0.98713748     0.01300
H2010       H  0.10020604  0.42695818  0.04662643     0.04900
H2011       H  0.12952746  0.44466399  0.06195936     0.06900
H2012       H  0.12723198  0.44265973  0.02155575     0.07700
C2013       C  0.07563011  0.60565179  0.67645127    -0.21900
C2014       C  0.07420308  0.59238495  0.65345761     0.10100
C2015       C  0.05722809  0.56690906  0.65705268     0.10500
C2016       C  0.04249760  0.55504561  0.68400549    -0.16800
C2017       C  0.04424119  0.56794791  0.70783812    -0.27200
C2018       C  0.06091522  0.59381796  0.70366805     0.18800
C2019       C  0.09188485  0.60525575  0.62685303     0.12800
C2020       C  0.05471279  0.55220694  0.63244860    -0.11600
H2021       H  0.02994119  0.53528862  0.68667227     0.13100
C2022       C  0.06333820  0.60919884  0.72737831    -0.22400
H2023       H  0.08876579  0.62531477  0.67332300     0.08700
C2024       C  0.08882486  0.62005661  0.60169625     0.05000
C2025       C  0.10772774  0.63434662  0.57913770    -0.19600
C2026       C  0.12935200  0.63372809  0.58093180    -0.11900
C2027       C  0.13122525  0.61695605  0.60458251     0.13800
C2028       C  0.11263246  0.60322095  0.62750500    -0.22400
C2029       C  0.06590542  0.62119407  0.59911330    -0.05400
H2030       H  0.10628993  0.64735139  0.56141677     0.15300
C2031       C  0.15274214  0.61339099  0.60654449    -0.15600
H2032       H  0.11456555  0.59121097  0.64640957     0.09600
H2033       H  0.07607287  0.62917533  0.71921066     0.07500
H2034       H  0.07071190  0.60399380  0.74874642     0.08700
H2035       H  0.04524692  0.60650542  0.73248696     0.07700
H2036       H  0.07219398  0.55313938  0.62886297     0.02600
H2037       H  0.04984086  0.55978371  0.61054685     0.03100
H2038       H  0.04023410  0.53250556  0.63873872     0.06600
H2039       H  0.06634038  0.63343512  0.57779738     0.05600
H2040       H  0.06372751  0.62834602  0.61914082    -0.00200
H2041       H  0.04983463  0.60243877  0.59856358     0.01300
H2042       H  0.16252609  0.61911889  0.62796599     0.04900
H2043       H  0.16581668  0.62400917  0.58659648     0.06900
H2044       H  0.14615234  0.59359332  0.60703780     0.07700
C2045       C  0.06226594  0.58443703  0.96522749    -0.21900
C2046       C  0.08102939  0.60758416  0.95123335     0.10100
C2047       C  0.08224383  0.61409063  0.91901906     0.10500
C2048       C  0.06503311  0.59693592  0.90135613    -0.16800
C2049       C  0.04642712  0.57315430  0.91498743    -0.27200
C2050       C  0.04488045  0.56713808  0.94773300     0.18800
C2051       C  0.09996211  0.62416474  0.97075874     0.12800
C2052       C  0.10193695  0.63906101  0.90325629    -0.11600
H2053       H  0.06649509  0.60219926  0.87656331     0.13100
C2054       C  0.02554301  0.54254917  0.96481252    -0.22400
H2055       H  0.06152991  0.57975647  0.99009487     0.08700
C2056       C  0.09748654  0.64141755  0.98367850     0.05000
C2057       C  0.11581841  0.65634805  0.00245337    -0.19600
C2058       C  0.13580659  0.65343647  0.00988256    -0.11900
C2059       C  0.13799370  0.63578767  0.99742828     0.13800
C2060       C  0.12030139  0.62172571  0.97749547    -0.22400
C2061       C  0.07510883  0.64338496  0.97857027    -0.05400
H2062       H  0.11416245  0.66973348  0.01234977     0.15300
C2063       C  0.15822231  0.63070215  0.00566978    -0.15600
H2064       H  0.12195592  0.60817995  0.96791182     0.09600
H2065       H  0.02734841  0.54137253  0.99014565     0.07500
H2066       H  0.02729105  0.52767249  0.95809432     0.08700
H2067       H  0.00710981  0.53957036  0.95966748     0.07700
H2068       H  0.12019190  0.64162622  0.90858956     0.02600
H2069       H  0.10057515  0.65372933  0.91138518     0.03100
H2070       H  0.10035919  0.64121390  0.87786336     0.06600
H2071       H  0.07589637  0.65751805  0.99074834     0.05600
H2072       H  0.05859673  0.62537544  0.98738043    -0.00200
H2073       H  0.07339525  0.64850754  0.95365008     0.01300
H2074       H  0.15024264  0.61114622  0.01671324     0.04900
H2075       H  0.17108754  0.64246190  0.02181128     0.06900
H2076       H  0.16876977  0.63400287  0.98447151     0.07700
C2077       C  0.74130390  0.24226875  0.97707496    -0.21900
C2078       C  0.73130432  0.24908218  0.49531541     0.10100
C2079       C  0.70554741  0.23532280  0.49891124     0.10500
C2080       C  0.69149832  0.22078761  0.47669810    -0.16800
C2081       C  0.70226396  0.21871564  0.95357059    -0.27200
C2082       C  0.72731537  0.22641149  0.95622321     0.18800
C2083       C  0.74701788  0.26587915  0.51699125     0.12800
C2084       C  0.69294140  0.23618570  0.52601954    -0.11600
H2085       H  0.67175955  0.21142615  0.47850013     0.13100
C2086       C  0.73984374  0.21802303  0.93778115    -0.22400
H2087       H  0.76066493  0.24884986  0.97832637     0.08700
C2088       C  0.75899078  0.25872520  0.54047637     0.05000
C2089       C  0.77260325  0.27469870  0.56142721    -0.19600
C2090       C  0.77468077  0.29774204  0.55933652    -0.11900
C2091       C  0.76362379  0.30537312  0.53496467     0.13800
C2092       C  0.74991942  0.28932239  0.51401727    -0.22400
C2093       C  0.75663255  0.23387642  0.54408731    -0.05400
H2094       H  0.78086098  0.26876959  0.58037974     0.15300
C2095       C  0.76665241  0.33309342  0.02602672    -0.15600
H2096       H  0.74387092  0.29719888  0.99083265     0.09600
H2097       H  0.74799593  0.20905599  0.95371806     0.07500
H2098       H  0.75462358  0.23418030  0.92273948     0.08700
H2099       H  0.72722309  0.20439194  0.92328969     0.07700
H2100       H  0.69730527  0.25531608  0.52577607     0.02600
H2101       H  0.69921619  0.22993366  0.54771583     0.03100
H2102       H  0.67277029  0.22404728  0.52563367     0.06600
H2103       H  0.76678993  0.23101484  0.56399839     0.05600
H2104       H  0.76409357  0.23230890  0.52306874    -0.00200
H2105       H  0.73709103  0.21907180  0.54776215     0.01300
H2106       H  0.78618714  0.34775432  0.02274406     0.04900
H2107       H  0.75822044  0.33129896  0.55329046     0.06900
H2108       H  0.75442697  0.33226337  0.51248711     0.07700
C2109       C  0.43036025  0.25281098  0.92312495    -0.21900
C2110       C  0.45186454  0.25371630  0.93372067     0.10100
C2111       C  0.46964635  0.27428000  0.94669508     0.10500
C2112       C  0.46438915  0.29213363  0.95153041    -0.16800
C2113       C  0.44193562  0.29006903  0.94341559    -0.27200
C2114       C  0.42508608  0.27061354  0.92808329     0.18800
C2115       C  0.45470735  0.23239900  0.93212351     0.12800
C2116       C  0.49343708  0.27661435  0.95733174    -0.11600
H2117       H  0.47695521  0.30652272  0.96430020     0.13100
C2118       C  0.40071861  0.26728125  0.91857602    -0.22400
H2119       H  0.41700884  0.23739186  0.91231528     0.08700
C2120       C  0.43937212  0.20885751  0.94984450     0.05000
C2121       C  0.44030003  0.18846664  0.94417992    -0.19600
C2122       C  0.45634861  0.19126896  0.92145814    -0.11900
C2123       C  0.47363364  0.21526305  0.90653956     0.13800
C2124       C  0.47227808  0.23543917  0.91155587    -0.22400
C2125       C  0.42157393  0.20509383  0.97409551    -0.05400
H2126       H  0.42709376  0.17008459  0.95560720     0.15300
C2127       C  0.49304605  0.21992673  0.88407853    -0.15600
H2128       H  0.48437218  0.25348339  0.89834641     0.09600
H2129       H  0.38580777  0.24954088  0.93107547     0.07500
H2130       H  0.39896137  0.26696910  0.89345926     0.08700
H2131       H  0.39841833  0.28235174  0.92339547     0.07700
H2132       H  0.50428351  0.27818729  0.93744990     0.02600
H2133       H  0.49037723  0.25629210  0.47982954     0.03100
H2134       H  0.50472066  0.29327206  0.96824296     0.06600
H2135       H  0.42073446  0.18755323  0.49063810     0.05600
H2136       H  0.40769234  0.20911408  0.96343585    -0.00200
H2137       H  0.44175049  0.21921173  0.49452474     0.01300
H2138       H  0.49016177  0.22771401  0.86089233     0.04900
H2139       H  0.49307986  0.20294630  0.88236619     0.06900
H2140       H  0.51131772  0.23332165  0.89174629     0.07700
C2141       C  0.64785859  0.13783285  0.49898612    -0.21900
C2142       C  0.62486921  0.13411088  0.50550257     0.10100
C2143       C  0.61610699  0.14754636  0.48614442     0.10500
C2144       C  0.63055961  0.16443116  0.46066409    -0.16800
C2145       C  0.65354898  0.16824120  0.45408318    -0.27200
C2146       C  0.66222465  0.15458692  0.47319093     0.18800
C2147       C  0.61018494  0.11640239  0.53290658     0.12800
C2148       C  0.59154380  0.14411654  0.49244752    -0.11600
H2149       H  0.62612390  0.18367644  0.94808487     0.13100
C2150       C  0.68602849  0.15667379  0.46633377    -0.22400
H2151       H  0.65444055  0.12735552  0.51383205     0.08700
C2152       C  0.59210919  0.09180551  0.53091966     0.05000
C2153       C  0.57637358  0.07673958  0.55652877    -0.19600
C2154       C  0.57859728  0.08554569  0.58439810    -0.11900
C2155       C  0.59794554  0.10992862  0.58671380     0.13800
C2156       C  0.61323892  0.12502176  0.56080138    -0.22400
C2157       C  0.58939292  0.08160141  0.50167495    -0.05400
H2158       H  0.56215913  0.05799248  0.55466856     0.15300
C2159       C  0.60231365  0.12075171  0.61582068    -0.15600
H2160       H  0.62737448  0.14393931  0.56202020     0.09600
H2161       H  0.68256477  0.13827135  0.46378283     0.07500
H2162       H  0.69846611  0.16331109  0.48559801     0.08700
H2163       H  0.69536761  0.16950493  0.44479931     0.07700
H2164       H  0.59117467  0.14884209  0.51538445     0.02600
H2165       H  0.57690322  0.12466887  0.49207281     0.03100
H2166       H  0.58752342  0.15606897  0.47497376     0.06600
H2167       H  0.57451724  0.06193899  0.50402109     0.05600
H2168       H  0.60671271  0.08292391  0.49582239    -0.00200
H2169       H  0.58513219  0.09224466  0.48248161     0.01300
H2170       H  0.60736236  0.11035529  0.63439625     0.04900
H2171       H  0.58565092  0.12018146  0.62285219     0.06900
H2172       H  0.61754116  0.14029621  0.61273762     0.07700
C2173       C  0.60369824  0.10406157  0.81419912    -0.21900
C2174       C  0.59040976  0.10501256  0.83751038     0.10100
C2175       C  0.56467914  0.09059013  0.83853704     0.10500
C2176       C  0.55280917  0.07556955  0.81602624    -0.16800
C2177       C  0.56603690  0.07482547  0.79221399    -0.27200
C2178       C  0.59194059  0.08930940  0.79144141     0.18800
C2179       C  0.60413841  0.12289754  0.85878307     0.12800
C2180       C  0.54978486  0.09099716  0.86337938    -0.11600
H2181       H  0.53300392  0.06477964  0.81663413     0.13100
C2182       C  0.60746768  0.08919266  0.76714529    -0.22400
H2183       H  0.62347870  0.11542429  0.81348081     0.08700
C2184       C  0.61861936  0.11909674  0.88178463     0.05000
C2185       C  0.63509950  0.13866349  0.89698184    -0.19600
C2186       C  0.63745843  0.16188606  0.88946320    -0.11900
C2187       C  0.62152160  0.16501370  0.86826700     0.13800
C2188       C  0.60514698  0.14550443  0.85306079    -0.22400
C2189       C  0.61721000  0.09467923  0.88957294    -0.05400
H2190       H  0.64734053  0.13630290  0.91319906     0.15300
C2191       C  0.62169841  0.18884230  0.86071682    -0.15600
H2192       H  0.59384391  0.14831536  0.83559601     0.09600
H2193       H  0.60274909  0.07000910  0.76687226     0.07500
H2194       H  0.62726212  0.10024148  0.77156481     0.08700
H2195       H  0.60461142  0.09736164  0.74422444     0.07700
H2196       H  0.55325649  0.10990829  0.86220581     0.02600
H2197       H  0.55486547  0.08506490  0.88627670     0.03100
H2198       H  0.52987260  0.07842946  0.86098033     0.06600
H2199       H  0.62953401  0.09476026  0.90837507     0.05600
H2200       H  0.62259717  0.09038970  0.86910061    -0.00200
H2201       H  0.59822404  0.07992757  0.89719896     0.01300
H2202       H  0.62716310  0.19677084  0.83609573     0.04900
H2203       H  0.63430776  0.20272057  0.87497360     0.06900
H2204       H  0.60307958  0.18519018  0.86494791     0.07700
C2205       C  0.48566329  0.14376306  0.48579732    -0.21900
C2206       C  0.46741407  0.12039934  0.50046262     0.10100
C2207       C  0.44398740  0.10887526  0.48803158     0.10500
C2208       C  0.43939115  0.12092283  0.46131524    -0.16800
C2209       C  0.45478266  0.14096342  0.94854598    -0.27200
C2210       C  0.47834233  0.15148354  0.96072912     0.18800
C2211       C  0.47324090  0.10772755  0.52809929     0.12800
C2212       C  0.42420426  0.08325427  0.50188941    -0.11600
H2213       H  0.42164243  0.11178618  0.45120456     0.13100
C2214       C  0.49962419  0.17486283  0.94423667    -0.22400
H2215       H  0.50364305  0.15249328  0.49538691     0.08700
C2216       C  0.48743168  0.09708100  0.52577234     0.05000
C2217       C  0.49100627  0.08384989  0.55224170    -0.19600
C2218       C  0.48041596  0.08048845  0.58119688    -0.11900
C2219       C  0.46608868  0.09126611  0.58329162     0.13800
C2220       C  0.46297721  0.10489213  0.55679996    -0.22400
C2221       C  0.49820547  0.09901023  0.49519093    -0.05400
H2222       H  0.50204548  0.07587666  0.55009808     0.15300
C2223       C  0.45316841  0.08792481  0.61281683    -0.15600
H2224       H  0.45195229  0.11299775  0.55827380     0.09600
H2225       H  0.51699397  0.17960229  0.95593623     0.07500
H2226       H  0.49663148  0.19037490  0.94380160     0.08700
H2227       H  0.50180950  0.17293277  0.92032215     0.07700
H2228       H  0.41932959  0.08305172  0.52569484     0.02600
H2229       H  0.43069976  0.07022258  0.50229531     0.03100
H2230       H  0.40735189  0.07659971  0.48844767     0.06600
H2231       H  0.50817023  0.08898221  0.49727815     0.05600
H2232       H  0.51130719  0.11862886  0.48579202     0.06100
H2233       H  0.48341238  0.09098324  0.47871935     0.01300
H2234       H  0.44170426  0.09638680  0.60947147     0.04900
H2235       H  0.46672935  0.09693759  0.63018082     0.06900
H2236       H  0.44094476  0.06797307  0.62163015     0.07700
C2237       C  0.43458584  0.08033438  0.86662447    -0.21900
C2238       C  0.45910639  0.08719759  0.86352064     0.10100
C2239       C  0.47721613  0.10639642  0.87825224     0.10500
C2240       C  0.47072968  0.12004626  0.89290447    -0.16800
C2241       C  0.44670375  0.11514675  0.89255934    -0.27200
C2242       C  0.42813800  0.09398031  0.88131929     0.18800
C2243       C  0.46575567  0.07700142  0.84068504     0.12800
C2244       C  0.50354551  0.11328559  0.87712651    -0.11600
H2245       H  0.48493538  0.13613950  0.90169382     0.13100
C2246       C  0.40158466  0.08614062  0.88331035    -0.22400
H2247       H  0.42060914  0.06529491  0.85576991     0.08700
C2248       C  0.46063020  0.05257074  0.84574978     0.05000
C2249       C  0.46597461  0.04371461  0.82209717    -0.19600
C2250       C  0.47610909  0.05870539  0.79332902    -0.11900
C2251       C  0.48186148  0.08352140  0.78883288     0.13800
C2252       C  0.47643722  0.09218501  0.81249372    -0.22400
C2253       C  0.44971696  0.03600949  0.87612003    -0.05400
H2254       H  0.46179842  0.02482623  0.82596029     0.15300
C2255       C  0.49418632  0.10131931  0.75959428    -0.15600
H2256       H  0.48029079  0.11097050  0.80889687     0.09600
H2257       H  0.39089241  0.06686122  0.89561384     0.07500
H2258       H  0.39462317  0.08709019  0.85980325     0.08700
H2259       H  0.39853865  0.09782228  0.89610336     0.07700
H2260       H  0.51089154  0.11965726  0.85301161     0.02600
H2261       H  0.50491066  0.09700793  0.88709557     0.03100
H2262       H  0.51518595  0.12835669  0.89044557     0.06600
H2263       H  0.44733839  0.01758877  0.87654680     0.05600
H2264       H  0.43151563  0.03330948  0.88046405    -0.00200
H2265       H  0.46190146  0.04450517  0.89492343     0.01300
H2266       H  0.48169488  0.09563704  0.74020968     0.04900
H2267       H  0.51131745  0.10197321  0.75455015     0.06900
H2268       H  0.49908453  0.12034082  0.76139337     0.07700
C2269       C  0.26856100  0.77093528  0.96369173    -0.21900
C2270       C  0.24737333  0.76707903  0.94823694     0.10100
C2271       C  0.24824279  0.78706639  0.92793443     0.10500
C2272       C  0.26851611  0.81105822  0.92785027    -0.16800
C2273       C  0.28805653  0.81525880  0.94711491    -0.27200
C2274       C  0.28900379  0.79477388  0.96302663     0.18800
C2275       C  0.22364553  0.74473396  0.96050484     0.12800
C2276       C  0.22731638  0.78315972  0.90747224    -0.11600
H2277       H  0.26786730  0.82671964  0.91530983     0.13100
C2278       C  0.30906413  0.79371730  0.48296460    -0.22400
H2279       H  0.26659424  0.75225987  0.47934508     0.08700
C2280       C  0.21793832  0.72042305  0.95990695     0.05000
C2281       C  0.19923071  0.70057851  0.97995757    -0.19600
C2282       C  0.18588303  0.70461275  0.99998723    -0.11900
C2283       C  0.18833660  0.72555957  0.49481694     0.13800
C2284       C  0.20861735  0.74824297  0.97830362    -0.22400
C2285       C  0.23189073  0.71556971  0.93864153    -0.05400
H2286       H  0.19637837  0.68228895  0.98165638     0.15300
C2287       C  0.17362887  0.73116715  0.51386397    -0.15600
H2288       H  0.21096980  0.76373300  0.47516191     0.09600
H2289       H  0.31598776  0.78250544  0.47606404     0.07500
H2290       H  0.30262676  0.78702408  0.50746660     0.08700
H2291       H  0.32455417  0.81307200  0.48067109     0.07700
H2292       H  0.21030318  0.77571335  0.92137855     0.02600
H2293       H  0.22443383  0.76991702  0.89218077     0.03100
H2294       H  0.23106716  0.80064851  0.89276372     0.06600
H2295       H  0.22475857  0.69553217  0.94051250     0.05600
H2296       H  0.25149450  0.72481383  0.94416415    -0.00200
H2297       H  0.23013258  0.72273331  0.91449672     0.01300
H2298       H  0.18584625  0.74418505  0.52935442     0.04900
H2299       H  0.15886077  0.71437127  0.52805833     0.06900
H2300       H  0.16494034  0.73980963  0.49842326     0.07700
C2301       C  0.37029743  0.92988468  0.50045705    -0.21900
C2302       C  0.38821070  0.92519211  0.51341189     0.10100
C2303       C  0.38858140  0.90453554  0.50732797     0.10500
C2304       C  0.36950056  0.88765799  0.49104942    -0.16800
C2305       C  0.35013594  0.89102416  0.48092651    -0.27200
C2306       C  0.35127799  0.91307006  0.48416150     0.18800
C2307       C  0.40303905  0.93912167  0.53788229     0.12800
C2308       C  0.40818651  0.89947513  0.51973791    -0.11600
H2309       H  0.36848775  0.87063272  0.48895057     0.13100
C2310       C  0.33203351  0.91873614  0.47198053    -0.22400
H2311       H  0.37022962  0.94592789  0.50484529     0.08700
C2312       C  0.42612546  0.96074560  0.53190405     0.05000
C2313       C  0.43916066  0.97265920  0.55651107    -0.19600
C2314       C  0.42940420  0.96390708  0.58711769    -0.11900
C2315       C  0.40548827  0.94261043  0.59253694     0.13800
C2316       C  0.39294300  0.93048080  0.56790711    -0.22400
C2317       C  0.43679956  0.97140003  0.49955570    -0.05400
H2318       H  0.45715167  0.98899331  0.55156857     0.15300
C2319       C  0.39258708  0.93232026  0.62379981    -0.15600
H2320       H  0.37490047  0.91404014  0.57200775     0.09600
H2321       H  0.34081515  0.93667366  0.45613939     0.07500
H2322       H  0.32265785  0.91997130  0.49138930     0.08700
H2323       H  0.31812142  0.90457631  0.45897457     0.07700
H2324       H  0.40782897  0.89717120  0.54524447     0.02600
H2325       H  0.42637883  0.91507988  0.51054200     0.03100
H2326       H  0.40564865  0.88244529  0.51303374     0.06600
H2327       H  0.45504151  0.98850137  0.49880365     0.05600
H2328       H  0.42449313  0.97598743  0.48516600    -0.00200
H2329       H  0.43886768  0.95784212  0.48957069     0.01300
H2330       H  0.39102025  0.94663331  0.63263607     0.04900
H2331       H  0.40266201  0.92579052  0.63996856     0.06900
H2332       H  0.37375942  0.91630579  0.62299250     0.07700
C2333       C  0.41130848  0.92600963  0.85403813    -0.21900
C2334       C  0.38810824  0.90756219  0.84674197     0.10100
C2335       C  0.38304210  0.90514323  0.81556030     0.10500
C2336       C  0.40075038  0.92204294  0.79242322    -0.16800
C2337       C  0.42392608  0.94120328  0.79940887    -0.27200
C2338       C  0.42947762  0.94237390  0.83111887     0.18800
C2339       C  0.36917690  0.89194472  0.87209561     0.12800
C2340       C  0.35912551  0.88436970  0.80664460    -0.11600
H2341       H  0.39627175  0.92017754  0.76861451     0.13100
C2342       C  0.45437184  0.96040616  0.84161670    -0.22400
H2343       H  0.41515980  0.92775367  0.87802360     0.08700
C2344       C  0.37162612  0.87549600  0.89568510     0.05000
C2345       C  0.35474946  0.86361607  0.92096917    -0.19600
C2346       C  0.33525134  0.86741006  0.92286743    -0.11900
C2347       C  0.33172899  0.88227372  0.89819081     0.13800
C2348       C  0.34892290  0.89470074  0.87345533    -0.22400
C2349       C  0.39186917  0.87030799  0.89412193    -0.05400
H2350       H  0.35719092  0.85196973  0.93981585     0.15300
C2351       C  0.31015067  0.88565063  0.89764526    -0.15600
H2352       H  0.34679284  0.90712266  0.85542257     0.09600
H2353       H  0.46844887  0.95774970  0.83240410     0.07500
H2354       H  0.45533644  0.95772298  0.86708988     0.08700
H2355       H  0.45868874  0.97960909  0.83392908     0.07700
H2356       H  0.34372040  0.88606750  0.81327971     0.02600
H2357       H  0.35650875  0.86644041  0.81839552     0.03100
H2358       H  0.35860896  0.88435570  0.78144835     0.06600
H2359       H  0.39046498  0.85625141  0.91374321     0.05600
H2360       H  0.40991857  0.88732883  0.89477321    -0.00200
H2361       H  0.39085193  0.86323547  0.87248161     0.01300
H2362       H  0.31662661  0.90543563  0.89687083     0.04900
H2363       H  0.29752960  0.87491882  0.91797530     0.06900
H2364       H  0.29960437  0.87943371  0.87682538     0.07700
C2365       C  0.49824636  0.74515434  0.94128209    -0.21900
C2366       C  0.51731817  0.76707895  0.92479882     0.10100
C2367       C  0.53096656  0.76592948  0.90188397     0.10500
C2368       C  0.52445103  0.74288911  0.89513552    -0.16800
C2369       C  0.50343708  0.72125374  0.90878686    -0.27200
C2370       C  0.49055016  0.72223090  0.93281451     0.18800
C2371       C  0.52208923  0.79092446  0.93140165     0.12800
C2372       C  0.55089275  0.78890497  0.88258510    -0.11600
H2373       H  0.53409331  0.74201138  0.87643156     0.13100
C2374       C  0.46772793  0.69965614  0.94789543    -0.22400
H2375       H  0.48836515  0.74618581  0.95954144     0.08700
C2376       C  0.50447522  0.79801420  0.92623443     0.05000
C2377       C  0.50859578  0.81913434  0.93689205    -0.19600
C2378       C  0.52985044  0.83311019  0.95241268    -0.11900
C2379       C  0.53738382  0.81662283  0.46538442     0.13800
C2380       C  0.54427141  0.80628014  0.94428827    -0.22400
C2381       C  0.48109290  0.78304654  0.91033484    -0.05400
H2382       H  0.49428845  0.82345805  0.93549739     0.15300
C2383       C  0.55856233  0.82876930  0.48591406    -0.15600
H2384       H  0.54515290  0.78829890  0.46209950     0.09600
H2385       H  0.45909563  0.70419063  0.96475579     0.07500
H2386       H  0.47228557  0.68618777  0.96051244     0.08700
H2387       H  0.45415834  0.69112204  0.93028863     0.07700
H2388       H  0.56620832  0.79975745  0.89707554     0.02600
H2389       H  0.54344959  0.80035724  0.87124686     0.03100
H2390       H  0.55843758  0.78446543  0.86428884     0.06600
H2391       H  0.47005287  0.79197489  0.90700755     0.05600
H2392       H  0.46968189  0.76450447  0.92419472    -0.00200
H2393       H  0.48540125  0.78109010  0.88734976     0.01300
H2394       H  0.55596115  0.81569175  0.50735722     0.04900
H2395       H  0.56078753  0.84580918  0.49204790     0.06900
H2396       H  0.57575845  0.83405977  0.47376674     0.07700
C2397       C  0.49290575  0.90354128  0.52913294    -0.21900
C2398       C  0.51522713  0.92603956  0.52472273     0.10100
C2399       C  0.53349751  0.92924567  0.50481980     0.10500
C2400       C  0.52990803  0.90906511  0.49208913    -0.16800
C2401       C  0.50852223  0.88584124  0.49909325    -0.27200
C2402       C  0.48925919  0.88342872  0.51641972     0.18800
C2403       C  0.51975017  0.94456075  0.54416302     0.12800
C2404       C  0.55699983  0.95369468  0.49786516    -0.11600
H2405       H  0.54466695  0.91091952  0.47882023     0.13100
C2406       C  0.46498169  0.85964692  0.52283150    -0.22400
H2407       H  0.47867428  0.90125994  0.54393666     0.08700
C2408       C  0.50817546  0.95831533  0.53907938     0.05000
C2409       C  0.50899787  0.97167271  0.56162348    -0.19600
C2410       C  0.52143212  0.97189907  0.58911813    -0.11900
C2411       C  0.53513220  0.96005626  0.59259757     0.13800
C2412       C  0.53376792  0.94624282  0.57025730    -0.22400
C2413       C  0.49489561  0.95879334  0.50992534    -0.05400
H2414       H  0.49902382  0.98122060  0.55813536     0.15300
C2415       C  0.55153672  0.96211194  0.61927871    -0.15600
H2416       H  0.54304772  0.93598702  0.57363746     0.09600
H2417       H  0.45012867  0.86292752  0.51427922     0.07500
H2418       H  0.46202815  0.85290614  0.54800382     0.08700
H2419       H  0.46365134  0.84498156  0.51137394     0.07700
H2420       H  0.56690934  0.95883969  0.51935220     0.02600
H2421       H  0.55291915  0.96808726  0.48735415     0.03100
H2422       H  0.56919880  0.95314137  0.48153895     0.06600
H2423       H  0.48730077  0.97093134  0.50928611     0.05600
H2424       H  0.47954109  0.93995241  0.50800424    -0.00200
H2425       H  0.50776628  0.96588070  0.48978367     0.01300
H2426       H  0.54055485  0.95236022  0.64109557     0.04900
H2427       H  0.56446389  0.98184720  0.62085464     0.06900
H2428       H  0.56252751  0.95369850  0.61645223     0.07700
C2429       C  0.50210646  0.89117828  0.89741758    -0.21900
C2430       C  0.52403883  0.90632527  0.87995368     0.10100
C2431       C  0.54548436  0.90692382  0.89067474     0.10500
C2432       C  0.54459659  0.89272704  0.91909048    -0.16800
C2433       C  0.52278696  0.87805505  0.93693525    -0.27200
C2434       C  0.50115232  0.87678119  0.92559546     0.18800
C2435       C  0.52422451  0.92246596  0.85153864     0.12800
C2436       C  0.56923976  0.92262837  0.87221853    -0.11600
H2437       H  0.56106301  0.89346378  0.92789038     0.13100
C2438       C  0.47677677  0.86005493  0.94234261    -0.22400
H2439       H  0.48562430  0.89064638  0.88901203     0.08700
C2440       C  0.51556375  0.91349374  0.82363700     0.05000
C2441       C  0.51361253  0.92892657  0.79841563    -0.19600
C2442       C  0.52021829  0.95319087  0.80047742    -0.11900
C2443       C  0.53029911  0.96252868  0.82810186     0.13800
C2444       C  0.53196603  0.94694049  0.85325973    -0.22400
C2445       C  0.50842746  0.88767115  0.82057947    -0.05400
H2446       H  0.50629820  0.92177083  0.77725970     0.15300
C2447       C  0.53990035  0.98898735  0.83126712    -0.15600
H2448       H  0.53895397  0.95372791  0.87470867     0.09600
H2449       H  0.46344084  0.84796284  0.92674242     0.07500
H2450       H  0.47005688  0.87125731  0.94979983     0.08700
H2451       H  0.47764317  0.84786951  0.96267324     0.07700
H2452       H  0.57465268  0.94230854  0.86896784     0.02600
H2453       H  0.56707891  0.91684608  0.84936441     0.03100
H2454       H  0.58421483  0.92088359  0.88386915     0.06600
H2455       H  0.50231321  0.88363133  0.79710022     0.05600
H2456       H  0.49324952  0.87412069  0.83728078    -0.00200
H2457       H  0.52435787  0.88532353  0.82524913     0.01300
H2458       H  0.54927174  0.99347048  0.85325879     0.04900
H2459       H  0.52466984  0.99248286  0.83108843     0.06900
H2460       H  0.55334544  0.00159459  0.81218852     0.07700
loop_ 
_geom_bond_atom_site_label_1 
_geom_bond_atom_site_label_2 
_geom_bond_distance 
_geom_bond_site_symmetry_2 
_ccdc_geom_bond_type 
N1            C2   1.359       .  A
N1         C1235   1.358       .  A
N1         C1203   1.441       .  S
C2         C1148   1.482       .  S
C2         C1233   1.384       .  A
C3            C4   1.370       .  A
C3         C1232   1.383   1_554  A
C3            H6   1.082       .  S
C4            C5   1.380   1_554  A
C4            H7   1.082       .  S
C5         N1231   1.354       .  A
C5         C1171   1.470       .  S
N8           C12   1.356       .  A
N8            C9   1.357       .  A
N8         C1116   1.437       .  S
C9         C1043   1.479       .  S
C9         C1240   1.382       .  A
C10          C11   1.370       .  A
C10        C1239   1.382       .  A
C10          H13   1.082   1_556  S
C11        C1242   1.381       .  A
C11          H14   1.082   1_556  S
C12        C2305   1.479       .  S
C12        C1241   1.380       .  A
O15         Zr27   2.464       .  S
O15          C17   1.293       .  A
O16         Zr53   2.412   1_565  S
O16          C17   1.282       .  A
C17        C1107   1.504       .  S
O18         Zr30   2.456       .  S
O18          C20   1.290       .  A
O19         Zr54   2.411   1_565  S
O19          C20   1.285       .  A
C20        C1180   1.489       .  S
O21         Zr30   2.464       .  S
O21          C23   1.292       .  A
O22         Zr53   2.412   1_565  S
O22          C23   1.283       .  A
C23        C1212   1.493       .  S
O24         Zr27   2.460       .  S
O24          C26   1.290       .  A
O25         Zr54   2.414   1_565  S
O25          C26   1.285       .  A
C26        C1084   1.500       .  S
Zr27         O28   2.434       .  S
Zr27         O29   2.436       .  S
Zr27         O33   2.373       .  S
Zr27         O34   2.373       .  S
Zr27         O57   2.380   1_565  S
Zr27         O59   2.375   1_565  S
O28          H71   0.990       .  S
O29          H70   0.990       .  S
O29          H74   0.990       .  S
Zr30         O31   2.435       .  S
Zr30         O32   2.436       .  S
Zr30         O34   2.377       .  S
Zr30         O33   2.372       .  S
Zr30         O58   2.375   1_565  S
Zr30         O60   2.379   1_565  S
O31          H72   0.990       .  S
O31          H75   0.990       .  S
O32          H65   0.990       .  S
O33         Zr53   2.371   1_565  S
O34         Zr54   2.387   1_565  S
O34          H61   0.966       .  S
O35         Zr47   2.461       .  S
O35          C37   1.290       .  A
O36         Zr54   2.418       .  S
O36          C37   1.286       .  A
C37         C988   1.504       .  S
O38         Zr50   2.433       .  S
O38          C40   1.286       .  A
O39         Zr53   2.418       .  S
O39          C40   1.285       .  A
C40         C947   1.484       .  S
O41         Zr50   2.448       .  S
O41          C43   1.288       .  A
O42         Zr54   2.432       .  S
O42          C43   1.288       .  A
C43         C924   1.496       .  S
O44         Zr47   2.459       .  S
O44          C46   1.291       .  A
O45         Zr53   2.406       .  S
O45          C46   1.283       .  A
C46        C1020   1.484       .  S
Zr47         O48   2.436       .  S
Zr47         O49   2.435       .  S
Zr47         O55   2.374       .  S
Zr47         O56   2.366       .  S
Zr47         O59   2.379       .  S
Zr47         O57   2.376       .  S
O48          H68   0.990       .  S
O48          H73   0.990       .  S
O49          H69   0.990       .  S
Zr50         O51   2.434       .  S
Zr50         O52   2.434       .  S
Zr50         O56   2.368       .  S
Zr50         O55   2.367       .  S
Zr50         O60   2.372       .  S
Zr50         O58   2.378       .  S
O51          H67   0.990       .  S
O52          H66   0.990       .  S
O52          H76   0.990       .  S
Zr53         O56   2.373       .  S
Zr53         O58   2.380       .  S
Zr53         O59   2.385       .  S
Zr54         O55   2.376       .  S
Zr54         O57   2.386       .  S
Zr54         O60   2.379       .  S
O55          H63   0.966       .  S
O58          H62   0.965       .  S
O59          H64   0.966       .  S
N77          C81   1.357       .  A
N77          C78   1.361       .  A
N77         C979   1.444       .  S
C78         C892   1.480       .  S
C78          C79   1.384       .  A
C79          C80   1.369       .  A
C79          H82   1.082       .  S
C80          C81   1.379       .  A
C80          H83   1.082       .  S
C81        C1011   1.478       .  S
N84          C88   1.354       .  A
N84          C85   1.359       .  A
N84        C2145   1.438       .  S
C85         C851   1.487       .  S
C85          C86   1.385       .  A
C86          C87   1.375       .  A
C86          H89   1.082       .  S
C87          C88   1.380       .  A
C87          H90   1.082       .  S
C88         C956   1.479       .  S
O91        Zr103   2.446       .  S
O91          C93   1.289       .  A
O92        Zr129   2.446   1_455  S
O92          C93   1.290       .  A
C93         C755   1.501       .  S
O94        Zr106   2.474       .  S
O94          C96   1.293       .  A
O95        Zr130   2.399   1_455  S
O95          C96   1.282       .  A
C96         C787   1.502       .  S
O97        Zr106   2.447       .  S
O97          C99   1.290       .  A
O98        Zr129   2.435   1_455  S
O98          C99   1.288       .  A
C99         C819   1.503       .  S
O100       Zr103   2.473       .  S
O100        C102   1.293       .  A
O101       Zr130   2.416   1_455  S
O101        C102   1.285       .  A
C102        C723   1.509       .  S
Zr103       O104   2.433       .  S
Zr103       O105   2.434       .  S
Zr103       O109   2.375       .  S
Zr103       O110   2.367       .  S
Zr103       O133   2.373   1_455  S
Zr103       O135   2.388   1_455  S
O104        H147   0.990       .  S
O105        H146   0.990       .  S
O105        H150   0.990       .  S
Zr106       O107   2.437       .  S
Zr106       O108   2.434       .  S
Zr106       O110   2.367       .  S
Zr106       O109   2.372       .  S
Zr106       O134   2.385   1_455  S
Zr106       O136   2.373   1_455  S
O107        H148   0.990       .  S
O107        H151   0.990       .  S
O108        H141   0.990       .  S
O109       Zr129   2.379   1_455  S
O110       Zr130   2.370   1_455  S
O110        H137   0.965       .  S
O111       Zr123   2.476       .  S
O111        C113   1.293       .  A
O112       Zr130   2.400       .  S
O112        C113   1.283       .  A
C113        C659   1.493       .  S
O114       Zr126   2.463       .  S
O114        C116   1.293       .  A
O115       Zr129   2.438       .  S
O115        C116   1.288       .  A
C116        C627   1.514       .  S
O117       Zr126   2.475       .  S
O117        C119   1.295       .  A
O118       Zr130   2.398       .  S
O118        C119   1.280       .  A
C119        C595   1.487       .  S
O120       Zr123   2.470       .  S
O120        C122   1.292       .  A
O121       Zr129   2.426       .  S
O121        C122   1.286       .  A
C122        C691   1.496       .  S
Zr123       O124   2.438       .  S
Zr123       O125   2.434       .  S
Zr123       O131   2.377       .  S
Zr123       O132   2.373       .  S
Zr123       O135   2.385       .  S
Zr123       O133   2.376       .  S
O124        H144   0.990       .  S
O124        H149   0.990       .  S
O125        H145   0.990       .  S
Zr126       O127   2.434       .  S
Zr126       O128   2.435       .  S
Zr126       O132   2.373       .  S
Zr126       O131   2.372       .  S
Zr126       O136   2.375       .  S
Zr126       O134   2.382       .  S
O127        H143   0.990       .  S
O128        H142   0.990       .  S
O128        H152   0.990       .  S
Zr129       O132   2.384       .  S
Zr129       O134   2.395       .  S
Zr129       O135   2.397       .  S
Zr130       O131   2.382       .  S
Zr130       O133   2.377       .  S
Zr130       O136   2.379       .  S
O131        H139   0.965       .  S
O134        H138   0.966       .  S
O135        H140   0.965       .  S
N153        C157   1.360       .  A
N153        C154   1.362       .  A
N153       C1994   1.442       .  S
C154        C563   1.486       .  S
C154        C155   1.382       .  A
C155        C156   1.373       .  A
C155        H158   1.082       .  S
C156        C157   1.379       .  A
C156        H159   1.082       .  S
C157        C732   1.486       .  S
N160        C164   1.359       .  A
N160        C161   1.359       .  A
N160        C700   1.445       .  S
C161        C860   1.479       .  S
C161        C162   1.381       .  A
C162        C163   1.371       .  A
C162        H165   1.082       .  S
C163        C164   1.382       .  A
C163        H166   1.082       .  S
C164        C668   1.482       .  S
N167        C168   1.362       .  A
N167       C1401   1.357       .  A
N167        C636   1.446       .  S
C168        C540   1.481       .  S
C168       C1399   1.384       .  A
C169        C170   1.369       .  A
C169       C1398   1.383       .  A
C169        H172   1.083       .  S
C170        C171   1.377       .  A
C170        H173   1.082       .  S
C171       N1397   1.357       .  A
C171        C604   1.474       .  S
N174        C175   1.358       .  A
N174       C1408   1.359       .  A
N174        C828   1.440       .  S
C175       C1052   1.481       .  S
C175       C1406   1.382       .  A
C176        C177   1.373       .  A
C176       C1405   1.384       .  A
C176        H179   1.082       .  S
C177        C178   1.380       .  A
C177        H180   1.082       .  S
C178       N1404   1.358       .  A
C178        C796   1.482       .  S
O181       Zr193   2.423       .  S
O181        C183   1.286       .  A
O182       Zr219   2.458       .  S
O182        C183   1.292       .  A
C183        C435   1.507       .  S
O184       Zr196   2.457       .  S
O184        C186   1.289       .  A
O185       Zr220   2.436       .  S
O185        C186   1.289       .  A
C186        C467   1.510       .  S
O187       Zr196   2.447       .  S
O187        C189   1.289       .  A
O188       Zr219   2.401       .  S
O188        C189   1.283       .  A
C189        C508   1.477       .  S
O190       Zr193   2.451       .  S
O190        C192   1.288       .  A
O191       Zr220   2.406       .  S
O191        C192   1.283       .  A
C192        C403   1.488       .  S
Zr193       O194   2.434       .  S
Zr193       O195   2.433       .  S
Zr193       O199   2.372       .  S
Zr193       O200   2.368       .  S
Zr193       O223   2.360       .  S
Zr193       O225   2.382       .  S
O194        H237   0.990       .  S
O195        H236   0.990       .  S
O195        H240   0.990       .  S
Zr196       O197   2.436       .  S
Zr196       O198   2.435       .  S
Zr196       O200   2.372       .  S
Zr196       O199   2.370       .  S
Zr196       O224   2.379       .  S
Zr196       O226   2.376       .  S
O197        H238   0.989       .  S
O197        H241   0.990       .  S
O198        H231   0.990       .  S
O199       Zr219   2.376       .  S
O200       Zr220   2.364       .  S
O200        H227   0.966       .  S
O201       Zr213   2.455       .  S
O201        C203   1.290       .  A
O202       Zr220   2.392       .  S
O202        C203   1.282       .  A
C203        C339   1.479       .  S
O204       Zr216   2.452       .  S
O204        C206   1.291       .  A
O205       Zr219   2.435       .  S
O205        C206   1.287       .  A
C206        C307   1.508       .  S
O207       Zr216   2.470       .  S
O207        C209   1.294       .  A
O208       Zr220   2.401       .  S
O208        C209   1.281       .  A
C209        C275   1.490       .  S
O210       Zr213   2.462       .  S
O210        C212   1.292       .  A
O211       Zr219   2.431       .  S
O211        C212   1.287       .  A
C212        C371   1.500       .  S
Zr213       O214   2.437       .  S
Zr213       O215   2.434       .  S
Zr213       O221   2.371       .  S
Zr213       O222   2.367       .  S
Zr213       O225   2.377       .  S
Zr213       O223   2.378       .  S
O214        H234   0.990       .  S
O214        H239   0.990       .  S
O215        H235   0.990       .  S
Zr216       O217   2.434       .  S
Zr216       O218   2.434       .  S
Zr216       O222   2.377       .  S
Zr216       O221   2.356       .  S
Zr216       O226   2.381       .  S
Zr216       O224   2.376       .  S
O217        H233   0.990       .  S
O218        H232   0.990       .  S
O218        H242   0.990       .  S
Zr219       O222   2.377       .  S
Zr219       O224   2.394       .  S
Zr219       O225   2.386       .  S
Zr220       O221   2.387       .  S
Zr220       O223   2.380       .  S
Zr220       O226   2.379       .  S
O221        H229   0.964       .  S
O224        H228   0.964       .  S
O225        H230   0.966       .  S
N243        C247   1.351       .  A
N243        C244   1.356       .  A
N243        C476   1.438       .  S
C244        C883   1.474       .  S
C244        C245   1.382       .  A
C245        C246   1.373       .  A
C245        H248   1.082       .  S
C246        C247   1.380       .  A
C246       H1479   1.082       .  S
C247        C499   1.470       .  S
H249       C1476   1.082       .  S
N250        C254   1.357       .  A
N250        C251   1.362       .  A
N250        C316   1.442       .  S
C251        C572   1.486       .  S
C251        C252   1.386       .  A
C252        C253   1.370       .  A
C252        H255   1.082       .  S
C253        C254   1.377       .  A
C253        H256   1.082       .  S
C254        C284   1.477       .  S
N257        C261   1.356       .  A
N257        C258   1.364       .  A
N257        C444   1.446       .  S
C258        C531   1.480       .  S
C258        C259   1.384       .  A
C259        C260   1.366       .  A
C259        H262   1.083       .  S
C260        C261   1.377       .  A
C260        H263   1.082       .  S
C261        C412   1.469       .  S
N264        C268   1.357       .  A
N264        C265   1.356       .  A
N264        C380   1.444       .  S
C265       C1139   1.473       .  S
C265        C266   1.380       .  A
C266        C267   1.369       .  A
C266        H269   1.082       .  S
C267        C268   1.383       .  A
C267        H270   1.082       .  S
C268        C348   1.476       .  S
C271        C272   1.400       .  A
C271        C276   1.405       .  A
C271        H281   1.084       .  S
C272        C277   1.486       .  S
C272        C273   1.413       .  A
C273        C274   1.403       .  A
C273        C278   1.508       .  S
C274        C275   1.406       .  A
C274        H279   1.084       .  S
C275        C276   1.423       .  A
C276        C280   1.509       .  S
C277        C282   1.414       .  A
C277        C286   1.403       .  A
C278        H294   1.109       .  S
C278        H295   1.110       .  S
C278        H296   1.111       .  S
C280        H291   1.111       .  S
C280        H292   1.111       .  S
C280        H293   1.109       .  S
C282        C283   1.405       .  A
C282        C287   1.507       .  S
C283        C284   1.402       .  A
C283        H288   1.084       .  S
C284        C285   1.412       .  A
C285        C286   1.401       .  A
C285        C289   1.506       .  S
C286        H290   1.084       .  S
C287        H297   1.111       .  S
C287        H298   1.109       .  S
C287        H299   1.111       .  S
C289        H300   1.111       .  S
C289        H301   1.108       .  S
C289        H302   1.110       .  S
C303        C304   1.401       .  A
C303        C308   1.410       .  A
C303        H313   1.084   1_554  S
C304        C309   1.491   1_554  S
C304        C305   1.408       .  A
C305        C306   1.406       .  A
C305        C310   1.507       .  S
C306        C307   1.413       .  A
C306        H311   1.083       .  S
C307        C308   1.427       .  A
C308        C312   1.509       .  S
C309        C318   1.407       .  A
C309       C1544   1.413       .  A
C310        H326   1.109       .  S
C310        H328   1.111       .  S
C310       H1557   1.111       .  S
C312        H323   1.111       .  S
C312        H324   1.111   1_554  S
C312        H325   1.110       .  S
C314        C315   1.399       .  A
C314       C1539   1.409       .  A
C314        C319   1.508       .  S
C315        C316   1.404       .  A
C315        H320   1.081       .  S
C316       C1547   1.413       .  A
C317        C318   1.408       .  A
C317       C1546   1.410       .  A
C317        C321   1.504       .  S
C318        H322   1.084   1_556  S
C319        H329   1.111       .  S
C319        H331   1.110       .  S
C319       H1560   1.110       .  S
C321        H332   1.110       .  S
C321        H334   1.110       .  S
C321       H1563   1.109       .  S
H327       C1540   1.110       .  S
H330       C1549   1.109       .  S
H333       C1551   1.107       .  S
C335        C336   1.402       .  A
C335        C340   1.400       .  A
C335        H345   1.085       .  S
C336        C341   1.470       .  S
C336        C337   1.403       .  A
C337        C338   1.397       .  A
C337        C342   1.506       .  S
C338        C339   1.411       .  A
C338        H343   1.084       .  S
C339        C340   1.416       .  A
C340        C344   1.508       .  S
C341        C346   1.407       .  A
C341        C350   1.399       .  A
C342        H358   1.108       .  S
C342        H359   1.110       .  S
C342        H360   1.110       .  S
C344        H355   1.110       .  S
C344        H356   1.111       .  S
C344        H357   1.108       .  S
C346        C347   1.399       .  A
C346        C351   1.507       .  S
C347        C348   1.403       .  A
C347        H352   1.083       .  S
C348        C349   1.415       .  A
C349        C350   1.401       .  A
C349        C353   1.508       .  S
C350        H354   1.084       .  S
C351        H361   1.111       .  S
C351        H362   1.109       .  S
C351        H363   1.111       .  S
C353        H364   1.106       .  S
C353        H365   1.109       .  S
C353        H366   1.110       .  S
C367        C368   1.403       .  A
C367        C372   1.411       .  A
C367        H377   1.084   1_554  S
C368        C373   1.496   1_554  S
C368        C369   1.412       .  A
C369        C370   1.409       .  A
C369        C374   1.507       .  S
C370        C371   1.409       .  A
C370        H375   1.084       .  S
C371        C372   1.421       .  A
C372        C376   1.508       .  S
C373        C378   1.415       .  A
C373       C1612   1.402       .  A
C374        H390   1.110       .  S
C374        H391   1.110       .  S
C374        H392   1.111       .  S
C376        H387   1.111       .  S
C376        H388   1.109       .  S
C376        H389   1.111       .  S
C378       C1609   1.412       .  A
C378        C383   1.505       .  S
C379        C380   1.403       .  A
C379       C1608   1.408       .  A
C379        H384   1.083       .  S
C380        C381   1.415       .  A
C381        C382   1.403       .  A
C381        C385   1.506       .  S
C382       C1603   1.402       .  A
C382        H386   1.085       .  S
C383        H393   1.111       .  S
C383        H394   1.110       .  S
C383        H395   1.111   1_556  S
C385        H396   1.110       .  S
C385        H397   1.107       .  S
C385        H398   1.110       .  S
C399        C400   1.401       .  A
C399        C404   1.403       .  A
C399        H409   1.085       .  S
C400        C405   1.475       .  S
C400        C401   1.404       .  A
C401        C402   1.402       .  A
C401        C406   1.506       .  S
C402        C403   1.411       .  A
C402        H407   1.084       .  S
C403        C404   1.419       .  A
C404        C408   1.507       .  S
C405        C410   1.411       .  A
C405        C414   1.400       .  A
C406        H422   1.110       .  S
C406        H423   1.110       .  S
C406        H424   1.111       .  S
C408        H419   1.110       .  S
C408        H420   1.111       .  S
C408        H421   1.110       .  S
C410        C411   1.401       .  A
C410        C415   1.507       .  S
C411        C412   1.400       .  A
C411        H416   1.084       .  S
C412        C413   1.412       .  A
C413        C414   1.402       .  A
C413        C417   1.506       .  S
C414        H418   1.084       .  S
C415        H425   1.111       .  S
C415        H426   1.110       .  S
C415        H427   1.110       .  S
C417        H428   1.111       .  S
C417        H429   1.110       .  S
C417        H430   1.108       .  S
C431        C432   1.404       .  A
C431        C436   1.410       .  A
C431        H441   1.084       .  S
C432        C437   1.492       .  S
C432        C433   1.407       .  A
C433        C434   1.405       .  A
C433        C438   1.508       .  S
C434        C435   1.416       .  A
C434        H439   1.083       .  S
C435        C436   1.422       .  A
C436        C440   1.507       .  S
C437        C442   1.412       .  A
C437        C446   1.406       .  A
C438        H454   1.109       .  S
C438        H455   1.110       .  S
C438        H456   1.111       .  S
C440        H451   1.111       .  S
C440        H452   1.110       .  S
C440        H453   1.110       .  S
C442       C1673   1.402   1_554  A
C442        C447   1.508       .  S
C443        C444   1.405       .  A
C443       C1672   1.407       .  A
C443        H448   1.083       .  S
C444        C445   1.414       .  A
C445       C1676   1.411       .  A
C445        C449   1.504       .  S
C446       C1675   1.410   1_554  A
C446        H450   1.084       .  S
C447        H457   1.111       .  S
C447        H458   1.109       .  S
C447        H459   1.110       .  S
C449        H460   1.110       .  S
C449        H461   1.107       .  S
C449        H462   1.110       .  S
C463        C464   1.398       .  A
C463        C468   1.408       .  A
C463        H473   1.084       .  S
C464        C469   1.489       .  S
C464        C465   1.409       .  A
C465        C466   1.408       .  A
C465        C470   1.508       .  S
C466        C467   1.414       .  A
C466        H471   1.083       .  S
C467        C468   1.428       .  A
C468        C472   1.508       .  S
C469        C474   1.411       .  A
C469        C478   1.406       .  A
C470        H486   1.110       .  S
C470        H487   1.111       .  S
C470        H488   1.111       .  S
C472        H483   1.110       .  S
C472        H484   1.111       .  S
C472        H485   1.108       .  S
C474        C475   1.401       .  A
C474        C479   1.507       .  S
C475        C476   1.401       .  A
C475        H480   1.083       .  S
C476        C477   1.412       .  A
C477        C478   1.409       .  A
C477        C481   1.504       .  S
C478        H482   1.084       .  S
C479        H489   1.111       .  S
C479        H490   1.109       .  S
C479        H491   1.110       .  S
C481        H492   1.110       .  S
C481        H493   1.109       .  S
C481        H494   1.111       .  S
C495        C496   1.400       .  A
C495        C500   1.398   1_554  A
C495        H505   1.085       .  S
C496        C501   1.475       .  S
C496        C497   1.411   1_554  A
C497       C1728   1.402       .  A
C497        C502   1.507       .  S
C498        C499   1.401       .  A
C498       C1727   1.400       .  A
C498        H503   1.083       .  S
C499       C1730   1.411       .  A
C500       C1729   1.411       .  A
C500        C504   1.506       .  S
C501        C506   1.408       .  A
C501        C510   1.401       .  A
C502        H518   1.109   1_556  S
C502        H519   1.110       .  S
C502       H1750   1.111       .  S
C504        H515   1.111       .  S
C504        H516   1.110   1_556  S
C504       H1747   1.109       .  S
C506        C507   1.401       .  A
C506        C511   1.506       .  S
C507        C508   1.407       .  A
C507        H512   1.084       .  S
C508        C509   1.416       .  A
C509        C510   1.400       .  A
C509        C513   1.507       .  S
C510        H514   1.085       .  S
C511        H521   1.111   1_554  S
C511        H522   1.109   1_554  S
C511       H1753   1.110   1_554  S
C513        H524   1.109       .  S
C513        H525   1.110       .  S
C513        H526   1.111       .  S
H517       C1734   1.109       .  S
H520       C1732   1.111       .  S
H523       C1741   1.110       .  S
C527        C528   1.404       .  A
C527        C532   1.407       .  A
C527       H1767   1.084       .  S
C528        C533   1.487       .  S
C528        C529   1.410       .  A
C529        C530   1.404       .  A
C529        C534   1.508       .  S
C530        C531   1.407       .  A
C530        H535   1.085       .  S
C531        C532   1.414       .  A
C532       C1766   1.504       .  S
C533        C538   1.409       .  A
C533        C542   1.406       .  A
C534        H550   1.110       .  S
C534        H551   1.107       .  S
C534        H552   1.111       .  S
C536       C1762   1.505       .  S
C536        H547   1.110       .  S
C536        H548   1.110       .  S
C536        H549   1.109       .  S
H537       C1757   1.084       .  S
C538        C539   1.404       .  A
C538        C543   1.508       .  S
C539        C540   1.407       .  A
C539        H544   1.085       .  S
C540        C541   1.413       .  A
C541        C542   1.408       .  A
C541        C545   1.506       .  S
C542        H546   1.084       .  S
C543        H555   1.107       .  S
C543       H1783   1.111       .  S
C543       H1784   1.111       .  S
C545        H556   1.111       .  S
C545        H557   1.108       .  S
C545        H558   1.110       .  S
H553       C1773   1.111       .  S
H554       C1773   1.110       .  S
C559        C560   1.404       .  A
C559        C564   1.408       .  A
C559        H569   1.084       .  S
C560        C565   1.483       .  S
C560       C1791   1.408       .  A
C561        C562   1.405       .  A
C561       C1790   1.411       .  A
C561        C566   1.508       .  S
C562        C563   1.406       .  A
C562        H567   1.084       .  S
C563       C1794   1.414       .  A
C564       C1793   1.414       .  A
C564        C568   1.505       .  S
C565        C570   1.407       .  A
C565        C574   1.405       .  A
C566        H582   1.110       .  S
C566        H583   1.107       .  S
C566        H584   1.111       .  S
C568        H579   1.107       .  S
C568        H580   1.111       .  S
C568        H581   1.110       .  S
C570        C571   1.401       .  A
C570        C575   1.507       .  S
C571        C572   1.408       .  A
C571        H576   1.085       .  S
C572        C573   1.414       .  A
C573        C574   1.409       .  A
C573        C577   1.505       .  S
C574        H578   1.084       .  S
C575        H585   1.111       .  S
C575        H586   1.110       .  S
C575        H587   1.108       .  S
C577        H588   1.111       .  S
C577        H589   1.110       .  S
C577       H1820   1.106       .  S
H590       C1807   1.106       .  S
C591        C592   1.399       .  A
C591        C596   1.408       .  A
C591        H601   1.084       .  S
C592        C597   1.481       .  S
C592        C593   1.412       .  A
C593        C594   1.402       .  A
C593        C598   1.508       .  S
C594        C595   1.403       .  A
C594        H599   1.084       .  S
C595        C596   1.424       .  A
C596        C600   1.510       .  S
C597        C602   1.409       .  A
C597        C606   1.402       .  A
C598        H614   1.110       .  S
C598        H615   1.110       .  S
C598        H616   1.111       .  S
C600        H611   1.110       .  S
C600        H612   1.111       .  S
C600        H613   1.109       .  S
C602        C603   1.402       .  A
C602        C607   1.505       .  S
C603        C604   1.403       .  A
C603        H608   1.083       .  S
C604        C605   1.412       .  A
C605        C606   1.403       .  A
C605        C609   1.507       .  S
C606        H610   1.082       .  S
C607        H617   1.111       .  S
C607        H618   1.110       .  S
C607        H619   1.110       .  S
C609        H620   1.110       .  S
C609        H621   1.108       .  S
C609        H622   1.110       .  S
C623        C624   1.401       .  A
C623        C628   1.412       .  A
C623        H633   1.084       .  S
C624        C629   1.496       .  S
C624        C625   1.409       .  A
C625        C626   1.409       .  A
C625        C630   1.506       .  S
C626        C627   1.414       .  A
C626        H631   1.083       .  S
C627        C628   1.429       .  A
C628        C632   1.509       .  S
C629        C634   1.412       .  A
C629        C638   1.408       .  A
C630        H646   1.110       .  S
C630        H647   1.110       .  S
C630        H648   1.111       .  S
C632        H643   1.111       .  S
C632        H644   1.110       .  S
C632        H645   1.110       .  S
C634        C635   1.404       .  A
C634        C639   1.507       .  S
C635        C636   1.405       .  A
C635        H640   1.084       .  S
C636        C637   1.412       .  A
C637        C638   1.414       .  A
C637        C641   1.503       .  S
C638        H642   1.084       .  S
C639        H649   1.111       .  S
C639        H650   1.110       .  S
C639        H651   1.110       .  S
C641        H652   1.110       .  S
C641        H653   1.109       .  S
C641        H654   1.110       .  S
C655        C656   1.403       .  A
C655        C660   1.409       .  A
C655        H665   1.084       .  S
C656        C661   1.483       .  S
C656        C657   1.407       .  A
C657        C658   1.401       .  A
C657        C662   1.507       .  S
C658        C659   1.411       .  A
C658        H663   1.084       .  S
C659        C660   1.418       .  A
C660        C664   1.507       .  S
C661        C666   1.411       .  A
C661        C670   1.400       .  A
C662        H678   1.109       .  S
C662        H679   1.110       .  S
C662        H680   1.111       .  S
C664        H675   1.111       .  S
C664        H676   1.109       .  S
C664        H677   1.110       .  S
C666        C667   1.407       .  A
C666        C671   1.505       .  S
C667        C668   1.405       .  A
C667        H672   1.084       .  S
C668        C669   1.416       .  A
C669        C670   1.400       .  A
C669        C673   1.508       .  S
C670        H674   1.085       .  S
C671        H681   1.111       .  S
C671        H682   1.110       .  S
C671        H683   1.110       .  S
C673        H684   1.110       .  S
C673        H685   1.107       .  S
C673        H686   1.110       .  S
C687        C688   1.401       .  A
C687        C692   1.408       .  A
C687        H697   1.084       .  S
C688        C693   1.491       .  S
C688        C689   1.412       .  A
C689        C690   1.409       .  A
C689        C694   1.506       .  S
C690        C691   1.409       .  A
C690        H695   1.084       .  S
C691        C692   1.419       .  A
C692        C696   1.505       .  S
C693        C698   1.412       .  A
C693        C702   1.402       .  A
C694        H710   1.110       .  S
C694        H711   1.110       .  S
C694        H712   1.111       .  S
C696        H707   1.111       .  S
C696        H708   1.109       .  S
C696        H709   1.110       .  S
C698        C699   1.406       .  A
C698        C703   1.505       .  S
C699       C1930   1.404       .  A
C699        H704   1.083       .  S
C700        C701   1.417       .  A
C700       C1929   1.405       .  A
C701       C1932   1.402       .  A
C701        C705   1.506       .  S
C702       C1931   1.408       .  A
C702        H706   1.084       .  S
C703        H713   1.111       .  S
C703        H714   1.110       .  S
C703        H715   1.110       .  S
C705        H716   1.110       .  S
C705        H717   1.106       .  S
C705        H718   1.111       .  S
C719        C720   1.400       .  A
C719        C724   1.408       .  A
C719        H729   1.084       .  S
C720        C725   1.489       .  S
C720        C721   1.407       .  A
C721        C722   1.408       .  A
C721        C726   1.506       .  S
C722        C723   1.417       .  A
C722        H727   1.083       .  S
C723        C724   1.425       .  A
C724        C728   1.507       .  S
C725        C730   1.412       .  A
C725        C734   1.402       .  A
C726        H742   1.110       .  S
C726        H743   1.110       .  S
C726        H744   1.111       .  S
C728        H739   1.109       .  S
C728        H740   1.111       .  S
C728        H741   1.110       .  S
C730        C731   1.407       .  A
C730        C735   1.507       .  S
C731        C732   1.405       .  A
C731        H736   1.084       .  S
C732        C733   1.415       .  A
C733        C734   1.407       .  A
C733        C737   1.506       .  S
C734        H738   1.084       .  S
C735        H745   1.111       .  S
C735        H746   1.110       .  S
C735        H747   1.110       .  S
C737        H748   1.110       .  S
C737        H749   1.106       .  S
C737        H750   1.110       .  S
C751        C752   1.403       .  A
C751        C756   1.412       .  A
C751        H761   1.084       .  S
C752        C757   1.492       .  S
C752        C753   1.409       .  A
C753        C754   1.406       .  A
C753        C758   1.507       .  S
C754        C755   1.411       .  A
C754        H759   1.084       .  S
C755        C756   1.421       .  A
C756        C760   1.506       .  S
C757        C762   1.411       .  A
C757        C766   1.404       .  A
C758        H774   1.110       .  S
C758        H775   1.110       .  S
C758        H776   1.111       .  S
C760        H771   1.108       .  S
C760        H772   1.111       .  S
C760        H773   1.109   1_455  S
C762        C763   1.407       .  A
C762        C767   1.506       .  S
C763        C764   1.407       .  A
C763       H1998   1.083       .  S
C764       N1383   1.447       .  S
C764        C765   1.416       .  A
C765        C766   1.408       .  A
C765        C769   1.505       .  S
C766        H770   1.084       .  S
C767        H777   1.111       .  S
C767        H778   1.110       .  S
C767        H779   1.110       .  S
H768       C1993   1.083       .  S
C769        H780   1.110       .  S
C769        H781   1.105       .  S
C769        H782   1.110       .  S
C783        C784   1.404       .  A
C783        C788   1.410       .  A
C783        H793   1.084       .  S
C784        C789   1.486       .  S
C784        C785   1.405       .  A
C785        C786   1.401       .  A
C785        C790   1.507       .  S
C786        C787   1.415       .  A
C786        H791   1.083       .  S
C787        C788   1.422       .  A
C788        C792   1.507       .  S
C789        C794   1.411       .  A
C789        C798   1.401       .  A
C790        H806   1.110       .  S
C790        H807   1.110       .  S
C790        H808   1.111       .  S
C792        H803   1.111       .  S
C792        H804   1.110       .  S
C792        H805   1.110       .  S
C794        C795   1.407       .  A
C794        C799   1.506       .  S
C795        C796   1.405       .  A
C795        H800   1.082       .  S
C796        C797   1.414       .  A
C797        C798   1.402       .  A
C797        C801   1.507       .  S
C798        H802   1.085       .  S
C799        H809   1.111       .  S
C799        H810   1.110       .  S
C799        H811   1.111       .  S
C801        H812   1.110       .  S
C801        H813   1.109       .  S
C801        H814   1.111       .  S
C815        C816   1.401       .  A
C815        C820   1.409       .  A
C815        H825   1.084       .  S
C816        C821   1.489       .  S
C816        C817   1.409       .  A
C817        C818   1.404       .  A
C817        C822   1.509       .  S
C818        C819   1.412       .  A
C818        H823   1.083       .  S
C819        C820   1.425       .  A
C820        C824   1.506       .  S
C821        C826   1.415       .  A
C821        C830   1.402       .  A
C822        H838   1.110       .  S
C822        H839   1.107       .  S
C822        H840   1.111       .  S
C824        H835   1.111       .  S
C824        H836   1.107       .  S
C824        H837   1.110       .  S
C826        C827   1.408       .  A
C826        C831   1.507       .  S
C827        C828   1.402       .  A
C827        H832   1.083       .  S
C828        C829   1.413       .  A
C829        C830   1.404       .  A
C829        C833   1.506       .  S
C830        H834   1.085       .  S
C831        H841   1.111       .  S
C831        H842   1.110       .  S
C831        H843   1.107       .  S
C833        H844   1.111       .  S
C833        H845   1.108       .  S
C833        H846   1.110       .  S
C847        C852   1.402       .  A
C847       C2078   1.398       .  A
C847        H857   1.085       .  S
C848        C853   1.485   1_556  S
C848        C849   1.414       .  A
C848       C2077   1.400       .  A
C849        C850   1.405       .  A
C849        C854   1.507   1_556  S
C850       C2081   1.402       .  A
C850        H855   1.083       .  S
C851        C852   1.419       .  A
C851       C2080   1.405       .  A
C852        C856   1.508       .  S
C853        C858   1.411       .  A
C853        C862   1.405       .  A
C854        H870   1.109       .  S
C854        H871   1.110       .  S
C854        H872   1.111       .  S
C856        H867   1.111       .  S
C856        H868   1.110       .  S
C856        H869   1.107       .  S
C858        C859   1.402       .  A
C858        C863   1.507       .  S
C859        C860   1.404       .  A
C859        H864   1.084       .  S
C860        C861   1.412       .  A
C861        C862   1.406       .  A
C861       C2095   1.506       .  S
C862       H2096   1.084   1_554  S
C863        H873   1.111       .  S
C863        H874   1.109       .  S
C863        H875   1.110       .  S
C865       C2091   1.506       .  S
C865        H876   1.107       .  S
C865       H2107   1.110       .  S
C865       H2108   1.110       .  S
H866       C2092   1.084       .  S
H877       C2095   1.110       .  S
H878       C2095   1.111       .  S
C879        C880   1.404       .  A
C879        C884   1.404       .  A
C879        H889   1.084       .  S
C880        C885   1.484       .  S
C880        C881   1.409       .  A
C881        C882   1.404       .  A
C881        C886   1.506       .  S
C882        C883   1.404       .  A
C882        H887   1.084       .  S
C883        C884   1.413       .  A
C884        C888   1.506       .  S
C885        C890   1.414       .  A
C885        C894   1.398       .  A
C886        H902   1.110       .  S
C886        H904   1.111       .  S
C886       H2133   1.111       .  S
C888        H899   1.110       .  S
C888        H900   1.110       .  S
C888        H901   1.106       .  S
C890        C891   1.408       .  A
C890        C895   1.505       .  S
C891        C892   1.401       .  A
C891        H896   1.084       .  S
C892        C893   1.418       .  A
C893        C894   1.400       .  A
C893        C897   1.508       .  S
C894        H898   1.085       .  S
C895        H906   1.110       .  S
C895       H2135   1.111       .  S
C895       H2137   1.111       .  S
C897        H908   1.110       .  S
C897        H909   1.109       .  S
C897        H910   1.111       .  S
H903       C2116   1.110       .  S
H905       C2125   1.111       .  S
H907       C2125   1.110       .  S
C911        C912   1.403   1_556  A
C911        C916   1.404       .  A
C911        H921   1.084   1_556  S
C912        C917   1.487       .  S
C912        C913   1.413   1_554  A
C913        C914   1.405       .  A
C913        C918   1.506       .  S
C914        C915   1.402       .  A
C914       H2149   1.084       .  S
C915       N1314   1.439       .  S
C915        C916   1.412       .  A
C916        C920   1.505       .  S
C917        C922   1.410       .  A
C917        C926   1.400       .  A
C918        H934   1.110   1_556  S
C918        H935   1.110       .  S
C918        H936   1.111       .  S
H919       C2144   1.084       .  S
C920        H931   1.110       .  S
C920        H932   1.110       .  S
C920        H933   1.107       .  S
C922        C923   1.406       .  A
C922        C927   1.507       .  S
C923        C924   1.409       .  A
C923        H928   1.084       .  S
C924        C925   1.423       .  A
C925        C926   1.407       .  A
C925        C929   1.508       .  S
C926        H930   1.084       .  S
C927        H937   1.111       .  S
C927        H938   1.110   1_554  S
C927        H939   1.110   1_554  S
C929        H940   1.110       .  S
C929        H941   1.110       .  S
C929        H942   1.111       .  S
C943        C944   1.400       .  A
C943        C948   1.401       .  A
C943        H953   1.084       .  S
C944        C949   1.480       .  S
C944        C945   1.410       .  A
C945        C946   1.404       .  A
C945        C950   1.506       .  S
C946        C947   1.408       .  A
C946        H951   1.084       .  S
C947        C948   1.419       .  A
C948        C952   1.509       .  S
C949        C954   1.412       .  A
C949        C958   1.401       .  A
C950        H966   1.109       .  S
C950        H967   1.111       .  S
C950        H968   1.111       .  S
C952        H963   1.110       .  S
C952        H964   1.111       .  S
C952        H965   1.109       .  S
C954        C955   1.405       .  A
C954        C959   1.506       .  S
C955        C956   1.404       .  A
C955        H960   1.084       .  S
C956        C957   1.413       .  A
C957        C958   1.400       .  A
C957        C961   1.507       .  S
C958        H962   1.085       .  S
C959        H969   1.111       .  S
C959        H970   1.109       .  S
C959        H971   1.110       .  S
C961        H972   1.110       .  S
C961        H973   1.108       .  S
C961        H974   1.111       .  S
C975        C976   1.404   1_556  A
C975       C2210   1.409       .  A
C975        H985   1.084       .  S
C976        C981   1.488       .  S
C976        C977   1.411   1_554  A
C977        C978   1.403       .  A
C977        C982   1.507   1_556  S
C978       C2209   1.404       .  A
C978        H983   1.084       .  S
C979        C980   1.413       .  A
C979       C2208   1.404       .  A
C980       C2205   1.410       .  A
C980        C984   1.504       .  S
C981        C986   1.409       .  A
C981        C990   1.400       .  A
C982        H998   1.110       .  S
C982        H999   1.111       .  S
C982       H1000   1.111   1_554  S
C984        H995   1.111       .  S
C984        H996   1.107       .  S
C984        H997   1.110       .  S
C986        C987   1.405       .  A
C986        C991   1.508   1_554  S
C987        C988   1.413       .  A
C987        H992   1.083       .  S
C988        C989   1.425       .  A
C989        C990   1.408       .  A
C989        C993   1.507       .  S
C990        H994   1.084       .  S
C991       H1001   1.111       .  S
C991       H1002   1.110       .  S
C991       H1003   1.111       .  S
C993       H1004   1.111       .  S
C993       H1005   1.109       .  S
C993       H1006   1.110       .  S
C1007      C1008   1.402       .  A
C1007      C1012   1.400       .  A
C1007      H1017   1.084       .  S
C1008      C1013   1.480       .  S
C1008      C1009   1.413       .  A
C1009      C1010   1.403       .  A
C1009      C1014   1.507       .  S
C1010      C1011   1.402       .  A
C1010      H1015   1.083       .  S
C1011      C1012   1.412       .  A
C1012      C1016   1.506       .  S
C1013      C1018   1.409       .  A
C1013      C1022   1.402       .  A
C1014      H1030   1.109       .  S
C1014      H1031   1.110       .  S
C1014      H1032   1.111       .  S
C1016      H1027   1.111       .  S
C1016      H1028   1.110       .  S
C1016      H1029   1.109       .  S
C1018      C1019   1.405       .  A
C1018      C1023   1.506       .  S
C1019      C1020   1.408       .  A
C1019      H1024   1.083       .  S
C1020      C1021   1.416       .  A
C1021      C1022   1.401       .  A
C1021      C1025   1.507       .  S
C1022      H1026   1.085       .  S
C1023      H1033   1.111       .  S
C1023      H1034   1.109       .  S
C1023      H1035   1.110       .  S
C1025      H1036   1.108       .  S
C1025      H1037   1.111       .  S
C1025      H1038   1.111       .  S
C1039      C1040   1.404       .  A
C1039      C1044   1.402       .  A
C1039      H2279   1.084       .  S
C1040      C1045   1.494       .  S
C1040      C1041   1.415       .  A
C1041      C1042   1.410       .  A
C1041      C1046   1.505       .  S
C1042      C1043   1.404       .  A
C1042      H1047   1.084       .  S
C1043      C1044   1.412       .  A
C1044      C2278   1.506       .  S
C1045      C1050   1.415       .  A
C1045      C1054   1.404       .  A
C1046      H1062   1.108       .  S
C1046      H1063   1.110       .  S
C1046      H1064   1.111       .  S
C1048      C2274   1.506       .  S
C1048      H1059   1.110       .  S
C1048      H1060   1.110   1_556  S
C1048      H1061   1.109       .  S
H1049      C2269   1.084       .  S
C1050      C1051   1.411       .  A
C1050      C1055   1.505       .  S
C1051      C1052   1.403       .  A
C1051      H1056   1.084       .  S
C1052      C2283   1.414       .  A
C1053      C2282   1.414       .  A
C1053      C2284   1.400       .  A
C1053      C1057   1.508   1_556  S
C1054      C2283   1.402       .  A
C1054      H2288   1.085       .  S
C1055      H1065   1.111       .  S
C1055      H1066   1.108       .  S
C1055      H1067   1.110       .  S
C1057      H1068   1.110       .  S
C1057      H1069   1.109       .  S
C1057      H1070   1.110       .  S
H1058      C2284   1.085       .  S
C1071      C1072   1.401       .  A
C1071      C1076   1.403   1_554  A
C1071      H1081   1.084       .  S
C1072      C1077   1.483       .  S
C1072      C1073   1.412       .  A
C1073      C1074   1.404   1_554  A
C1073      C1078   1.507       .  S
C1074      C1075   1.402       .  A
C1074      H1079   1.083       .  S
C1075      C1242   1.478       .  S
C1075      C1076   1.414       .  A
C1076      C1080   1.506       .  S
C1077      C1082   1.405       .  A
C1077      C1086   1.400       .  A
C1078      H1094   1.110       .  S
C1078      H1095   1.110       .  S
C1078      H1096   1.111       .  S
C1080      H1091   1.111       .  S
C1080      H1092   1.110       .  S
C1080      H1093   1.109       .  S
C1082      C1083   1.405       .  A
C1082      C1087   1.506       .  S
C1083      C1084   1.414       .  A
C1083      H1088   1.083       .  S
C1084      C1085   1.424       .  A
C1085      C1086   1.405       .  A
C1085      C1089   1.508       .  S
C1086      H1090   1.085       .  S
C1087      H1097   1.111       .  S
C1087      H1098   1.110   1_554  S
C1087      H1099   1.110   1_554  S
C1089      H1100   1.110       .  S
C1089      H1101   1.110       .  S
C1089      H1102   1.111       .  S
C1103      C1104   1.398       .  A
C1103      C1108   1.405       .  A
C1103      H1113   1.084       .  S
C1104      C1109   1.487       .  S
C1104      C1105   1.409       .  A
C1105      C1106   1.407       .  A
C1105      C1110   1.506       .  S
C1106      C1107   1.412       .  A
C1106      H1111   1.083       .  S
C1107      C1108   1.429       .  A
C1108      C1112   1.510       .  S
C1109      C1114   1.414       .  A
C1109      C1118   1.402       .  A
C1110      H1126   1.109       .  S
C1110      H1127   1.111       .  S
C1110      H1128   1.111       .  S
C1112      H1123   1.111       .  S
C1112      H1124   1.111       .  S
C1112      H1125   1.109       .  S
C1114      C1115   1.407       .  A
C1114      C1119   1.506       .  S
C1115      C1116   1.402       .  A
C1115      H1120   1.083       .  S
C1116      C1117   1.413       .  A
C1117      C1118   1.401       .  A
C1117      C1121   1.506       .  S
C1118      H1122   1.085       .  S
C1119      H1129   1.111       .  S
C1119      H1130   1.109       .  S
C1119      H1131   1.110       .  S
C1121      H1132   1.111       .  S
C1121      H1133   1.107       .  S
C1121      H1134   1.110       .  S
C1135      C1136   1.405       .  A
C1135      C1140   1.403       .  A
C1135      H1145   1.084       .  S
C1136      C1141   1.483       .  S
C1136      C1137   1.411       .  A
C1137      C1138   1.402       .  A
C1137      C1142   1.506       .  S
C1138      C1139   1.404       .  A
C1138      H1143   1.084       .  S
C1139      C1140   1.409       .  A
C1140      C1144   1.506       .  S
C1141      C1146   1.415       .  A
C1141      C1150   1.399       .  A
C1142      H1158   1.109       .  S
C1142      H1159   1.110       .  S
C1142      H1160   1.111       .  S
C1144      H1155   1.111       .  S
C1144      H1156   1.108       .  S
C1144      H1157   1.110       .  S
C1146      C1147   1.405       .  A
C1146      C1151   1.507       .  S
C1147      C1148   1.402       .  A
C1147      H1152   1.082       .  S
C1148      C2379   1.418       .  A
C1149      C2378   1.411       .  A
C1149      C2380   1.396       .  A
C1149      C1153   1.506       .  S
C1150      C2379   1.401       .  A
C1150      H2384   1.084       .  S
C1151      H1161   1.111       .  S
C1151      H1162   1.109       .  S
C1151      H1163   1.111       .  S
C1153      H1164   1.110       .  S
C1153      H1165   1.109       .  S
C1153      H1166   1.111       .  S
H1154      C2380   1.084       .  S
C1167      C1168   1.400       .  A
C1167      C1172   1.398       .  A
C1167      H1177   1.085       .  S
C1168      C1173   1.479       .  S
C1168      C1169   1.411       .  A
C1169      C1170   1.404   1_554  A
C1169      C1174   1.506   1_554  S
C1170      C1171   1.402       .  A
C1170      H1175   1.084       .  S
C1171      C1172   1.413   1_556  A
C1172      C1176   1.508       .  S
C1173      C1178   1.407       .  A
C1173      C1182   1.401       .  A
C1174      H1190   1.110   1_556  S
C1174      H1191   1.110       .  S
C1174      H1192   1.111       .  S
C1176      H1187   1.110       .  S
C1176      H1188   1.110       .  S
C1176      H1189   1.107       .  S
C1178      C1179   1.402       .  A
C1178      C1183   1.507       .  S
C1179      C1180   1.411       .  A
C1179      H1184   1.084       .  S
C1180      C1181   1.419       .  A
C1181      C1182   1.403       .  A
C1181      C1185   1.508       .  S
C1182      H1186   1.084       .  S
C1183      H1193   1.111       .  S
C1183      H1194   1.110       .  S
C1183      H1195   1.110   1_554  S
C1185      H1196   1.109       .  S
C1185      H1197   1.110       .  S
C1185      H1198   1.111       .  S
C1199      C1200   1.402       .  A
C1199      C1204   1.403       .  A
C1199      H1209   1.085       .  S
C1200      C1205   1.488       .  S
C1200      C1201   1.414       .  A
C1201      C1202   1.408       .  A
C1201      C1206   1.505       .  S
C1202      C1203   1.402       .  A
C1202      H1207   1.083       .  S
C1203      C1204   1.413       .  A
C1204      C1208   1.505       .  S
C1205      C1210   1.411       .  A
C1205      C1214   1.400       .  A
C1206      H1222   1.110       .  S
C1206      H1223   1.110       .  S
C1206      H1224   1.111       .  S
C1208      H1219   1.111       .  S
C1208      H1220   1.110       .  S
C1208      H1221   1.107       .  S
C1210      C1211   1.407       .  A
C1210      C1215   1.506       .  S
C1211      C1212   1.408       .  A
C1211      H1216   1.084       .  S
C1212      C1213   1.423       .  A
C1213      C1214   1.406       .  A
C1213      C1217   1.510       .  S
C1214      H1218   1.084       .  S
C1215      H1225   1.111       .  S
C1215      H1226   1.110       .  S
C1215      H1227   1.110       .  S
C1217      H1228   1.111       .  S
C1217      H1229   1.109       .  S
C1217      H1230   1.110       .  S
N1231      C1232   1.353       .  A
N1231      C2433   1.440       .  S
C1232      C2378   1.471       .  S
C1233      C1234   1.371       .  A
C1233      H1236   1.082       .  S
C1234      C1235   1.380       .  A
C1234      H1237   1.082       .  S
C1235      C2401   1.479       .  S
N1238      C1242   1.358       .  A
N1238      C1239   1.358       .  A
N1238      C2346   1.440       .  S
C1239      C2273   1.478       .  S
C1240      C1241   1.372       .  A
C1240      H1243   1.082       .  S
C1241      H1244   1.082       .  S
O1245     Zr1257   2.467       .  S
O1245      C1247   1.293       .  A
O1246     Zr1283   2.424   1_565  S
O1246      C1247   1.285       .  A
C1247      C2337   1.511       .  S
O1248     Zr1260   2.456       .  S
O1248      C1250   1.290       .  A
O1249     Zr1284   2.415       .  S
O1249      C1250   1.286   1_545  A
C1250      C2410   1.492       .  S
O1251     Zr1260   2.457       .  S
O1251      C1253   1.291       .  A
O1252     Zr1283   2.412   1_565  S
O1252      C1253   1.284       .  A
C1253      C2442   1.488       .  S
O1254     Zr1257   2.458       .  S
O1254      C1256   1.290       .  A
O1255     Zr1284   2.421   1_565  S
O1255      C1256   1.287       .  A
C1256      C2314   1.504       .  S
Zr1257     O1258   2.433       .  S
Zr1257     O1259   2.437       .  S
Zr1257     O1263   2.374       .  S
Zr1257     O1264   2.372       .  S
Zr1257     O1287   2.381   1_565  S
Zr1257     O1289   2.372   1_565  S
O1258      H1301   0.990       .  S
O1259      H1300   0.990       .  S
O1259      H1304   0.990       .  S
Zr1260     O1261   2.436       .  S
Zr1260     O1262   2.434       .  S
Zr1260     O1264   2.373       .  S
Zr1260     O1263   2.376       .  S
Zr1260     O1288   2.379   1_565  S
Zr1260     O1290   2.371   1_565  S
O1261      H1302   0.990       .  S
O1261      H1305   0.990       .  S
O1262      H1295   0.990       .  S
O1263     Zr1283   2.377   1_565  S
O1264     Zr1284   2.387   1_565  S
O1264      H1291   0.966       .  S
O1265     Zr1277   2.458       .  S
O1265      C1267   1.290       .  A
O1266     Zr1284   2.424       .  S
O1266      C1267   1.287       .  A
C1267      C2218   1.501       .  S
O1268     Zr1280   2.444       .  S
O1268      C1270   1.288       .  A
O1269     Zr1283   2.426       .  S
O1269      C1270   1.287       .  A
C1270      C2177   1.489       .  S
O1271     Zr1280   2.442       .  S
O1271      C1273   1.286       .  A
O1272     Zr1284   2.433       .  S
O1272      C1273   1.288       .  A
C1273      C2154   1.495       .  S
O1274     Zr1277   2.457       .  S
O1274      C1276   1.291       .  A
O1275     Zr1283   2.410       .  S
O1275      C1276   1.284       .  A
C1276      C2250   1.489       .  S
Zr1277     O1278   2.436       .  S
Zr1277     O1279   2.435       .  S
Zr1277     O1285   2.379       .  S
Zr1277     O1286   2.365       .  S
Zr1277     O1289   2.378       .  S
Zr1277     O1287   2.374       .  S
O1278      H1298   0.990       .  S
O1278      H1303   0.990       .  S
O1279      H1299   0.990       .  S
Zr1280     O1281   2.433       .  S
Zr1280     O1282   2.437       .  S
Zr1280     O1286   2.367       .  S
Zr1280     O1285   2.375       .  S
Zr1280     O1290   2.369       .  S
Zr1280     O1288   2.373       .  S
O1281      H1297   0.990       .  S
O1282      H1296   0.990       .  S
O1282      H1306   0.989       .  S
Zr1283     O1286   2.374       .  S
Zr1283     O1288   2.385       .  S
Zr1283     O1289   2.384       .  S
Zr1284     O1285   2.381       .  S
Zr1284     O1287   2.386       .  S
Zr1284     O1290   2.377       .  S
O1285      H1293   0.966       .  S
O1288      H1292   0.966       .  S
O1289      H1294   0.966       .  S
N1307      C1311   1.357       .  A
N1307      C1308   1.359       .  A
N1307      C2209   1.443       .  S
C1308      C2122   1.476       .  S
C1308      C1309   1.382       .  A
C1309      C1310   1.368       .  A
C1309      H1312   1.082       .  S
C1310      C1311   1.380       .  A
C1310      H1313   1.082       .  S
C1311      C2241   1.477       .  S
N1314      C1318   1.354       .  A
N1314      C1315   1.357       .  A
C1315      C2081   1.482       .  S
C1315      C1316   1.384       .  A
C1316      C1317   1.375       .  A
C1316      H1319   1.082       .  S
C1317      C1318   1.382       .  A
C1317      H1320   1.082       .  S
C1318      C2186   1.479       .  S
O1321     Zr1333   2.435       .  S
O1321      C1323   1.288       .  A
O1322     Zr1359   2.429   1_455  S
O1322      C1323   1.287       .  A
C1323      C1985   1.492       .  S
O1324     Zr1336   2.467       .  S
O1324      C1326   1.292       .  A
O1325     Zr1360   2.403   1_455  S
O1325      C1326   1.284       .  A
C1326      C2017   1.494       .  S
O1327     Zr1336   2.444       .  S
O1327      C1329   1.290       .  A
O1328     Zr1359   2.434   1_455  S
O1328      C1329   1.287       .  A
C1329      C2049   1.505       .  S
O1330     Zr1333   2.460       .  S
O1330      C1332   1.290       .  A
O1331     Zr1360   2.426   1_455  S
O1331      C1332   1.287       .  A
C1332      C1953   1.506       .  S
Zr1333     O1334   2.433       .  S
Zr1333     O1335   2.433       .  S
Zr1333     O1339   2.376       .  S
Zr1333     O1340   2.365       .  S
Zr1333     O1363   2.369   1_455  S
Zr1333     O1365   2.377   1_455  S
O1334      H1377   0.990       .  S
O1335      H1376   0.990       .  S
O1335      H1380   0.990       .  S
Zr1336     O1337   2.436       .  S
Zr1336     O1338   2.435       .  S
Zr1336     O1340   2.368       .  S
Zr1336     O1339   2.372       .  S
Zr1336     O1364   2.383   1_455  S
Zr1336     O1366   2.374   1_455  S
O1337      H1378   0.990       .  S
O1337      H1381   0.990       .  S
O1338      H1371   0.990       .  S
O1339     Zr1359   2.383   1_455  S
O1340     Zr1360   2.379   1_455  S
O1340      H1367   0.965       .  S
O1341     Zr1353   2.453       .  S
O1341      C1343   1.289       .  A
O1342     Zr1360   2.426       .  S
O1342      C1343   1.288       .  A
C1343      C1889   1.494       .  S
O1344     Zr1356   2.453       .  S
O1344      C1346   1.291       .  A
O1345     Zr1359   2.432       .  S
O1345      C1346   1.287       .  A
C1346      C1857   1.506       .  S
O1347     Zr1356   2.461       .  S
O1347      C1349   1.292       .  A
O1348     Zr1360   2.399       .  S
O1348      C1349   1.281       .  A
C1349      C1825   1.484       .  S
O1350     Zr1353   2.438       .  S
O1350      C1352   1.287       .  A
O1351     Zr1359   2.442       .  S
O1351      C1352   1.289       .  A
C1352      C1921   1.490       .  S
Zr1353     O1354   2.438       .  S
Zr1353     O1355   2.434       .  S
Zr1353     O1361   2.370       .  S
Zr1353     O1362   2.375       .  S
Zr1353     O1365   2.375       .  S
Zr1353     O1363   2.373       .  S
O1354      H1374   0.990       .  S
O1354      H1379   0.990       .  S
O1355      H1375   0.990       .  S
Zr1356     O1357   2.433       .  S
Zr1356     O1358   2.436       .  S
Zr1356     O1362   2.372       .  S
Zr1356     O1361   2.367       .  S
Zr1356     O1366   2.375       .  S
Zr1356     O1364   2.376       .  S
O1357      H1373   0.990       .  S
O1358      H1372   0.990       .  S
O1358      H1382   0.990       .  S
Zr1359     O1362   2.380       .  S
Zr1359     O1364   2.394       .  S
Zr1359     O1365   2.394       .  S
Zr1360     O1361   2.379       .  S
Zr1360     O1363   2.378       .  S
Zr1360     O1366   2.387       .  S
O1361      H1369   0.965       .  S
O1364      H1368   0.966       .  S
O1365      H1370   0.965       .  S
N1383      C1387   1.360       .  A
N1383      C1384   1.365       .  A
C1384      C1793   1.486       .  S
C1384      C1385   1.384       .  A
C1385      C1386   1.369       .  A
C1385      H1388   1.083       .  S
C1386      C1387   1.378       .  A
C1386      H1389   1.082       .  S
C1387      C1962   1.479       .  S
N1390      C1394   1.363       .  A
N1390      C1391   1.362       .  A
N1390      C1930   1.449       .  S
C1391      C2090   1.483       .  S
C1391      C1392   1.381       .  A
C1392      C1393   1.370       .  A
C1392      H1395   1.082       .  S
C1393      C1394   1.382       .  A
C1393      H1396   1.082       .  S
C1394      C1898   1.483       .  S
N1397      C1398   1.364       .  A
N1397      C1866   1.445       .  S
C1398      C1770   1.483       .  S
C1399      C1400   1.367       .  A
C1399      H1402   1.083       .  S
C1400      C1401   1.377       .  A
C1400      H1403   1.082       .  S
C1401      C1834   1.477       .  S
N1404      C1405   1.359       .  A
N1404      C2058   1.437       .  S
C1405      C2282   1.484   1_554  S
C1406      C1407   1.372       .  A
C1406      H1409   1.082       .  S
C1407      C1408   1.382       .  A
C1407      H1410   1.082       .  S
C1408      C2026   1.483       .  S
O1411     Zr1423   2.442       .  S
O1411      C1413   1.289       .  A
O1412     Zr1449   2.462       .  S
O1412      C1413   1.293       .  A
C1413      C1665   1.515       .  S
O1414     Zr1426   2.453       .  S
O1414      C1416   1.288       .  A
O1415     Zr1450   2.436       .  S
O1415      C1416   1.289       .  A
C1416      C1697   1.505       .  S
O1417     Zr1426   2.447       .  S
O1417      C1419   1.288       .  A
O1418     Zr1449   2.395       .  S
O1418      C1419   1.282       .  A
C1419      C1738   1.489       .  S
O1420     Zr1423   2.474       .  S
O1420      C1422   1.293       .  A
O1421     Zr1450   2.398       .  S
O1421      C1422   1.282       .  A
C1422      C1633   1.496       .  S
Zr1423     O1424   2.433       .  S
Zr1423     O1425   2.436       .  S
Zr1423     O1429   2.377       .  S
Zr1423     O1430   2.364       .  S
Zr1423     O1453   2.370       .  S
Zr1423     O1455   2.392       .  S
O1424      H1467   0.990       .  S
O1425      H1466   0.990       .  S
O1425      H1470   0.990       .  S
Zr1426     O1427   2.435       .  S
Zr1426     O1428   2.434       .  S
Zr1426     O1430   2.366       .  S
Zr1426     O1429   2.369       .  S
Zr1426     O1454   2.368       .  S
Zr1426     O1456   2.377       .  S
O1427      H1468   0.990       .  S
O1427      H1471   0.990       .  S
O1428      H1461   0.990       .  S
O1429     Zr1449   2.375       .  S
O1430     Zr1450   2.367       .  S
O1430      H1457   0.966       .  S
O1431     Zr1443   2.457       .  S
O1431      C1433   1.290       .  A
O1432     Zr1450   2.388       .  S
O1432      C1433   1.281       .  A
C1433      C1569   1.480       .  S
O1434     Zr1446   2.426       .  S
O1434      C1436   1.286       .  A
O1435     Zr1449   2.452       .  S
O1435      C1436   1.291       .  A
C1436      C1537   1.497       .  S
O1437     Zr1446   2.463       .  S
O1437      C1439   1.292       .  A
O1438     Zr1450   2.412       .  S
O1438      C1439   1.282       .  A
C1439      C1505   1.497       .  S
O1440     Zr1443   2.485       .  S
O1440      C1442   1.296       .  A
O1441     Zr1449   2.407       .  S
O1441      C1442   1.282       .  A
C1442      C1601   1.503       .  S
Zr1443     O1444   2.438       .  S
Zr1443     O1445   2.435       .  S
Zr1443     O1451   2.381       .  S
Zr1443     O1452   2.368       .  S
Zr1443     O1455   2.377       .  S
Zr1443     O1453   2.387       .  S
O1444      H1464   0.990       .  S
O1444      H1469   0.990       .  S
O1445      H1465   0.990       .  S
Zr1446     O1447   2.436       .  S
Zr1446     O1448   2.435       .  S
Zr1446     O1452   2.379       .  S
Zr1446     O1451   2.356       .  S
Zr1446     O1456   2.376       .  S
Zr1446     O1454   2.378       .  S
O1447      H1463   0.990       .  S
O1448      H1462   0.990       .  S
O1448      H1472   0.990       .  S
Zr1449     O1452   2.381       .  S
Zr1449     O1454   2.388       .  S
Zr1449     O1455   2.390       .  S
Zr1450     O1451   2.383       .  S
Zr1450     O1453   2.390       .  S
Zr1450     O1456   2.374       .  S
O1451      H1459   0.965       .  S
O1454      H1458   0.964       .  S
O1455      H1460   0.965       .  S
N1473      C1477   1.355       .  A
N1473      C1474   1.359       .  A
N1473      C1706   1.444       .  S
C1474      C2113   1.474       .  S
C1474      C1475   1.381       .  A
C1475      C1476   1.369   1_556  A
C1475      H1478   1.082   1_556  S
C1476      C1477   1.380   1_554  A
C1477      C1729   1.473       .  S
N1480      C1484   1.354       .  A
N1480      C1481   1.362       .  A
N1480      C1546   1.439       .  S
C1481      C1802   1.490       .  S
C1481      C1482   1.387       .  A
C1482      C1483   1.372       .  A
C1482      H1485   1.082       .  S
C1483      C1484   1.377       .  A
C1483      H1486   1.082       .  S
C1484      C1514   1.475       .  S
N1487      C1491   1.361       .  A
N1487      C1488   1.364       .  A
N1487      C1674   1.446       .  S
C1488      C1761   1.485       .  S
C1488      C1489   1.385       .  A
C1489      C1490   1.368       .  A
C1489      H1492   1.083       .  S
C1490      C1491   1.377       .  A
C1490      H1493   1.082       .  S
C1491      C1642   1.484       .  S
N1494      C1498   1.359       .  A
N1494      C1495   1.358       .  A
N1494      C1610   1.448       .  S
C1495      C2369   1.472       .  S
C1495      C1496   1.383       .  A
C1496      C1497   1.363       .  A
C1496      H1499   1.083       .  S
C1497      C1498   1.381       .  A
C1497      H1500   1.082       .  S
C1498      C1578   1.471       .  S
C1501      C1502   1.397       .  A
C1501      C1506   1.406       .  A
C1501      H1511   1.084       .  S
C1502      C1507   1.484       .  S
C1502      C1503   1.412       .  A
C1503      C1504   1.405       .  A
C1503      C1508   1.508       .  S
C1504      C1505   1.408       .  A
C1504      H1509   1.084       .  S
C1505      C1506   1.426       .  A
C1506      C1510   1.509       .  S
C1507      C1512   1.412       .  A
C1507      C1516   1.402       .  A
C1508      H1524   1.109       .  S
C1508      H1525   1.111       .  S
C1508      H1526   1.110       .  S
C1510      H1521   1.111       .  S
C1510      H1522   1.111       .  S
C1510      H1523   1.109       .  S
C1512      C1513   1.405       .  A
C1512      C1517   1.506       .  S
C1513      C1514   1.403       .  A
C1513      H1518   1.084       .  S
C1514      C1515   1.411       .  A
C1515      C1516   1.401       .  A
C1515      C1519   1.506       .  S
C1516      H1520   1.085       .  S
C1517      H1527   1.111       .  S
C1517      H1528   1.110       .  S
C1517      H1529   1.110       .  S
C1519      H1530   1.110       .  S
C1519      H1531   1.108       .  S
C1519      H1532   1.110       .  S
C1533      C1534   1.403       .  A
C1533      C1538   1.410       .  A
C1533      H1543   1.084       .  S
C1534      C1539   1.485       .  S
C1534      C1535   1.406       .  A
C1535      C1536   1.402       .  A
C1535      C1540   1.508       .  S
C1536      C1537   1.412       .  A
C1536      H1541   1.084       .  S
C1537      C1538   1.420       .  A
C1538      C1542   1.507       .  S
C1539      C1548   1.406       .  A
C1540      H1556   1.110       .  S
C1540      H1558   1.111       .  S
C1542      H1553   1.110       .  S
C1542      H1554   1.111       .  S
C1542      H1555   1.110       .  S
C1544      C1545   1.403       .  A
C1544      C1549   1.507       .  S
C1545      C1546   1.404       .  A
C1545      H1550   1.083       .  S
C1547      C1548   1.409       .  A
C1547      C1551   1.503       .  S
C1548      H1552   1.084       .  S
C1549      H1559   1.111       .  S
C1549      H1561   1.110   1_556  S
C1551      H1562   1.110       .  S
C1551      H1564   1.111       .  S
C1565      C1566   1.402       .  A
C1565      C1570   1.402       .  A
C1565      H1575   1.084       .  S
C1566      C1571   1.471       .  S
C1566      C1567   1.405       .  A
C1567      C1568   1.397       .  A
C1567      C1572   1.508       .  S
C1568      C1569   1.411       .  A
C1568      H1573   1.084       .  S
C1569      C1570   1.416       .  A
C1570      C1574   1.508       .  S
C1571      C1576   1.409       .  A
C1571      C1580   1.399       .  A
C1572      H1588   1.110       .  S
C1572      H1589   1.110       .  S
C1572      H1590   1.111       .  S
C1574      H1585   1.110       .  S
C1574      H1586   1.111       .  S
C1574      H1587   1.109       .  S
C1576      C1577   1.401       .  A
C1576      C1581   1.506       .  S
C1577      C1578   1.403       .  A
C1577      H1582   1.084       .  S
C1578      C1579   1.415       .  A
C1579      C1580   1.396       .  A
C1579      C1583   1.508       .  S
C1580      H1584   1.085       .  S
C1581      H1591   1.111       .  S
C1581      H1592   1.110       .  S
C1581      H1593   1.110       .  S
C1583      H1594   1.108       .  S
C1583      H1595   1.110       .  S
C1583      H1596   1.111       .  S
C1597      C1598   1.398       .  A
C1597      C1602   1.407       .  A
C1597      H1607   1.084       .  S
C1598      C1603   1.490       .  S
C1598      C1599   1.411       .  A
C1599      C1600   1.410       .  A
C1599      C1604   1.506       .  S
C1600      C1601   1.409       .  A
C1600      H1605   1.084       .  S
C1601      C1602   1.427       .  A
C1602      C1606   1.507       .  S
C1603      C1608   1.414       .  A
C1604      H1620   1.110       .  S
C1604      H1621   1.110       .  S
C1604      H1622   1.110       .  S
C1606      H1617   1.111       .  S
C1606      H1618   1.110       .  S
C1606      H1619   1.110       .  S
C1608      C1613   1.505       .  S
C1609      C1610   1.405       .  A
C1609      H1614   1.083       .  S
C1610      C1611   1.417       .  A
C1611      C1612   1.404       .  A
C1611      C1615   1.506       .  S
C1612      H1616   1.085       .  S
C1613      H1623   1.111       .  S
C1613      H1624   1.110       .  S
C1613      H1625   1.110       .  S
C1615      H1626   1.107       .  S
C1615      H1627   1.110       .  S
C1615      H1628   1.111       .  S
C1629      C1630   1.401       .  A
C1629      C1634   1.405       .  A
C1629      H1639   1.084       .  S
C1630      C1635   1.483       .  S
C1630      C1631   1.407       .  A
C1631      C1632   1.405       .  A
C1631      C1636   1.506       .  S
C1632      C1633   1.414       .  A
C1632      H1637   1.084       .  S
C1633      C1634   1.420       .  A
C1634      C1638   1.507       .  S
C1635      C1640   1.412       .  A
C1635      C1644   1.400       .  A
C1636      H1652   1.110       .  S
C1636      H1653   1.109       .  S
C1636      H1654   1.111       .  S
C1638      H1649   1.110       .  S
C1638      H1650   1.111       .  S
C1638      H1651   1.110       .  S
C1640      C1641   1.405       .  A
C1640      C1645   1.505       .  S
C1641      C1642   1.403       .  A
C1641      H1646   1.084       .  S
C1642      C1643   1.414       .  A
C1643      C1644   1.404       .  A
C1643      C1647   1.503       .  S
C1644      H1648   1.084       .  S
C1645      H1655   1.111       .  S
C1645      H1656   1.110       .  S
C1645      H1657   1.108       .  S
C1647      H1658   1.111       .  S
C1647      H1659   1.110       .  S
C1647      H1660   1.104       .  S
C1661      C1662   1.403       .  A
C1661      C1666   1.413       .  A
C1661      H1671   1.084       .  S
C1662      C1667   1.498       .  S
C1662      C1663   1.409       .  A
C1663      C1664   1.409       .  A
C1663      C1668   1.507       .  S
C1664      C1665   1.416       .  A
C1664      H1669   1.083       .  S
C1665      C1666   1.425       .  A
C1666      C1670   1.505       .  S
C1667      C1672   1.413       .  A
C1667      C1676   1.407       .  A
C1668      H1684   1.110       .  S
C1668      H1685   1.110       .  S
C1668      H1686   1.110       .  S
C1670      H1681   1.111       .  S
C1670      H1682   1.107       .  S
C1670      H1683   1.110       .  S
C1672      C1677   1.507       .  S
C1673      C1674   1.407       .  A
C1673      H1678   1.084       .  S
C1674      C1675   1.414       .  A
C1675      C1679   1.503       .  S
C1676      H1680   1.084       .  S
C1677      H1687   1.111       .  S
C1677      H1688   1.110       .  S
C1677      H1689   1.110       .  S
C1679      H1690   1.110       .  S
C1679      H1691   1.106       .  S
C1679      H1692   1.110   1_556  S
C1693      C1694   1.400       .  A
C1693      C1698   1.408       .  A
C1693      H1703   1.084       .  S
C1694      C1699   1.494       .  S
C1694      C1695   1.412       .  A
C1695      C1696   1.409       .  A
C1695      C1700   1.507       .  S
C1696      C1697   1.412       .  A
C1696      H1701   1.084       .  S
C1697      C1698   1.426       .  A
C1698      C1702   1.508       .  S
C1699      C1704   1.412       .  A
C1699      C1708   1.407       .  A
C1700      H1716   1.108       .  S
C1700      H1717   1.110       .  S
C1700      H1718   1.111       .  S
C1702      H1713   1.111       .  S
C1702      H1714   1.111       .  S
C1702      H1715   1.109       .  S
C1704      C1705   1.403       .  A
C1704      C1709   1.507       .  S
C1705      C1706   1.404       .  A
C1705      H1710   1.084       .  S
C1706      C1707   1.413       .  A
C1707      C1708   1.410       .  A
C1707      C1711   1.503       .  S
C1708      H1712   1.084       .  S
C1709      H1719   1.111       .  S
C1709      H1720   1.109       .  S
C1709      H1721   1.110       .  S
C1711      H1722   1.110       .  S
C1711      H1723   1.106       .  S
C1711      H1724   1.111       .  S
C1725      C1726   1.400       .  A
C1725      C1730   1.400       .  A
C1725      H1735   1.084       .  S
C1726      C1731   1.471       .  S
C1726      C1727   1.410       .  A
C1727      C1732   1.508       .  S
C1728      C1729   1.403       .  A
C1728      H1733   1.083       .  S
C1730      C1734   1.505       .  S
C1731      C1736   1.403       .  A
C1731      C1740   1.398       .  A
C1732      H1748   1.110       .  S
C1732      H1749   1.110       .  S
C1734      H1745   1.111       .  S
C1734      H1746   1.110       .  S
C1736      C1737   1.402       .  A
C1736      C1741   1.505       .  S
C1737      C1738   1.414       .  A
C1737      H1742   1.083       .  S
C1738      C1739   1.422       .  A
C1739      C1740   1.398       .  A
C1739      C1743   1.509       .  S
C1740      H1744   1.085       .  S
C1741      H1751   1.111       .  S
C1741      H1752   1.110       .  S
C1743      H1754   1.110       .  S
C1743      H1755   1.110       .  S
C1743      H1756   1.111       .  S
C1757      C1758   1.408   1_554  A
C1757      C1762   1.411       .  A
C1758      C1763   1.492   1_556  S
C1758      C1759   1.410       .  A
C1759      C1760   1.404       .  A
C1759      C1764   1.507       .  S
C1760      C1761   1.407       .  A
C1760      H1765   1.085       .  S
C1761      C1762   1.413   1_556  A
C1763      C1768   1.412       .  A
C1763      C1772   1.403       .  A
C1764      H1780   1.110       .  S
C1764      H1781   1.107       .  S
C1764      H1782   1.111       .  S
C1766      H1777   1.110       .  S
C1766      H1778   1.110       .  S
C1766      H1779   1.106       .  S
C1768      C1769   1.410       .  A
C1768      C1773   1.507       .  S
C1769      C1770   1.408       .  A
C1769      H1774   1.084       .  S
C1770      C1771   1.415       .  A
C1771      C1772   1.406       .  A
C1771      C1775   1.505       .  S
C1772      H1776   1.084   1_554  S
C1773      H1785   1.107       .  S
C1775      H1786   1.110       .  S
C1775      H1787   1.107       .  S
C1775      H1788   1.110   1_554  S
C1789      C1790   1.404       .  A
C1789      C1794   1.408       .  A
C1789      H1799   1.084   1_554  S
C1790      C1795   1.486   1_554  S
C1791      C1792   1.402       .  A
C1791      C1796   1.508       .  S
C1792      C1793   1.408       .  A
C1792      H1797   1.084       .  S
C1794      C1798   1.505       .  S
C1795      C1800   1.409       .  A
C1795      C1804   1.403       .  A
C1796      H1812   1.110       .  S
C1796      H1813   1.108       .  S
C1796      H1814   1.111       .  S
C1798      H1809   1.106       .  S
C1798      H1810   1.111       .  S
C1798      H1811   1.111       .  S
C1800      C1801   1.404       .  A
C1800      C1805   1.508       .  S
C1801      C1802   1.409       .  A
C1801      H1806   1.084       .  S
C1802      C1803   1.415       .  A
C1803      C1804   1.408       .  A
C1803      C1807   1.503       .  S
C1804      H1808   1.084   1_556  S
C1805      H1815   1.111       .  S
C1805      H1816   1.110       .  S
C1805      H1817   1.107       .  S
C1807      H1818   1.111   1_556  S
C1807      H1819   1.110       .  S
C1821      C1822   1.399       .  A
C1821      C1826   1.405       .  A
C1821      H1831   1.084       .  S
C1822      C1827   1.479       .  S
C1822      C1823   1.410       .  A
C1823      C1824   1.401       .  A
C1823      C1828   1.507       .  S
C1824      C1825   1.405       .  A
C1824      H1829   1.084       .  S
C1825      C1826   1.422       .  A
C1826      C1830   1.509       .  S
C1827      C1832   1.409       .  A
C1827      C1836   1.399       .  A
C1828      H1844   1.110       .  S
C1828      H1845   1.110       .  S
C1828      H1846   1.111       .  S
C1830      H1841   1.110       .  S
C1830      H1842   1.111       .  S
C1830      H1843   1.109       .  S
C1832      C1833   1.406       .  A
C1832      C1837   1.505       .  S
C1833      C1834   1.405       .  A
C1833      H1838   1.083       .  S
C1834      C1835   1.412       .  A
C1835      C1836   1.400       .  A
C1835      C1839   1.505       .  S
C1836      H1840   1.082       .  S
C1837      H1847   1.111       .  S
C1837      H1848   1.110       .  S
C1837      H1849   1.110       .  S
C1839      H1850   1.110       .  S
C1839      H1851   1.109       .  S
C1839      H1852   1.109       .  S
C1853      C1854   1.401       .  A
C1853      C1858   1.410       .  A
C1853      H1863   1.084       .  S
C1854      C1859   1.492       .  S
C1854      C1855   1.408       .  A
C1855      C1856   1.406       .  A
C1855      C1860   1.506       .  S
C1856      C1857   1.412       .  A
C1856      H1861   1.083       .  S
C1857      C1858   1.427       .  A
C1858      C1862   1.508       .  S
C1859      C1864   1.412       .  A
C1859      C1868   1.404       .  A
C1860      H1876   1.110       .  S
C1860      H1877   1.111       .  S
C1860      H1878   1.111       .  S
C1862      H1873   1.111       .  S
C1862      H1874   1.110       .  S
C1862      H1875   1.109       .  S
C1864      C1865   1.406   1_556  A
C1864      C1869   1.507       .  S
C1865      C1866   1.405       .  A
C1865      H1870   1.082       .  S
C1866      C1867   1.414       .  A
C1867      C1868   1.408   1_554  A
C1867      C1871   1.503       .  S
C1868      H1872   1.084       .  S
C1869      H1879   1.111       .  S
C1869      H1880   1.110       .  S
C1869      H1881   1.110       .  S
C1871      H1882   1.111       .  S
C1871      H1883   1.109       .  S
C1871      H1884   1.110       .  S
C1885      C1886   1.402       .  A
C1885      C1890   1.409       .  A
C1885      H1895   1.084       .  S
C1886      C1891   1.486       .  S
C1886      C1887   1.408       .  A
C1887      C1888   1.403       .  A
C1887      C1892   1.506       .  S
C1888      C1889   1.409       .  A
C1888      H1893   1.084       .  S
C1889      C1890   1.421       .  A
C1890      C1894   1.508       .  S
C1891      C1896   1.411       .  A
C1891      C1900   1.400       .  A
C1892      H1908   1.109       .  S
C1892      H1909   1.110       .  S
C1892      H1910   1.111       .  S
C1894      H1905   1.111       .  S
C1894      H1906   1.109       .  S
C1894      H1907   1.110       .  S
C1896      C1897   1.407       .  A
C1896      C1901   1.505       .  S
C1897      C1898   1.404       .  A
C1897      H1902   1.084       .  S
C1898      C1899   1.418       .  A
C1899      C1900   1.402       .  A
C1899      C1903   1.509       .  S
C1900      H1904   1.085       .  S
C1901      H1911   1.111       .  S
C1901      H1912   1.110       .  S
C1901      H1913   1.110       .  S
C1903      H1914   1.110       .  S
C1903      H1915   1.107       .  S
C1903      H1916   1.109       .  S
C1917      C1918   1.402       .  A
C1917      C1922   1.409       .  A
C1917      H1927   1.084   1_556  S
C1918      C1923   1.485   1_556  S
C1918      C1919   1.409       .  A
C1919      C1920   1.402       .  A
C1919      C1924   1.507       .  S
C1920      C1921   1.407       .  A
C1920      H1925   1.084       .  S
C1921      C1922   1.416       .  A
C1922      C1926   1.501       .  S
C1923      C1928   1.412       .  A
C1923      C1932   1.400       .  A
C1924      H1940   1.110       .  S
C1924      H1941   1.110       .  S
C1924      H1942   1.111       .  S
C1926      H1937   1.111   1_556  S
C1926      H1938   1.109       .  S
C1926      H1939   1.110       .  S
C1928      C1929   1.407       .  A
C1928      C1933   1.505       .  S
C1929      H1934   1.083       .  S
C1930      C1931   1.420       .  A
C1931      C1935   1.505       .  S
C1932      H1936   1.085       .  S
C1933      H1943   1.111       .  S
C1933      H1944   1.110       .  S
C1933      H1945   1.110   1_554  S
C1935      H1946   1.109       .  S
C1935      H1947   1.105       .  S
C1935      H1948   1.110       .  S
C1949      C1950   1.398       .  A
C1949      C1954   1.406       .  A
C1949      H1959   1.084       .  S
C1950      C1955   1.486       .  S
C1950      C1951   1.406       .  A
C1951      C1952   1.407       .  A
C1951      C1956   1.506       .  S
C1952      C1953   1.415       .  A
C1952      H1957   1.083       .  S
C1953      C1954   1.427       .  A
C1954      C1958   1.508       .  S
C1955      C1960   1.412       .  A
C1955      C1964   1.403       .  A
C1956      H1972   1.110       .  S
C1956      H1973   1.111       .  S
C1956      H1974   1.110       .  S
C1958      H1969   1.110       .  S
C1958      H1970   1.111       .  S
C1958      H1971   1.110       .  S
C1960      C1961   1.402       .  A
C1960      C1965   1.507       .  S
C1961      C1962   1.402       .  A
C1961      H1966   1.084       .  S
C1962      C1963   1.415       .  A
C1963      C1964   1.406       .  A
C1963      C1967   1.506       .  S
C1964      H1968   1.084       .  S
C1965      H1975   1.111       .  S
C1965      H1976   1.110       .  S
C1965      H1977   1.110       .  S
C1967      H1978   1.110       .  S
C1967      H1979   1.105       .  S
C1967      H1980   1.110       .  S
C1981      C1982   1.400       .  A
C1981      C1986   1.405       .  A
C1981      H1991   1.084   1_556  S
C1982      C1987   1.480   1_556  S
C1982      C1983   1.407       .  A
C1983      C1984   1.401       .  A
C1983      C1988   1.506       .  S
C1984      C1985   1.410       .  A
C1984      H1989   1.084       .  S
C1985      C1986   1.420       .  A
C1986      C1990   1.503       .  S
C1987      C1992   1.409       .  A
C1987      C1996   1.402       .  A
C1988      H2004   1.110       .  S
C1988      H2005   1.110       .  S
C1988      H2006   1.111       .  S
C1990      H2001   1.108       .  S
C1990      H2002   1.111   1_556  S
C1990      H2003   1.106   1_455  S
C1992      C1993   1.400       .  A
C1992      C1997   1.507       .  S
C1993      C1994   1.403       .  A
C1994      C1995   1.417       .  A
C1995      C1996   1.405       .  A
C1995      C1999   1.505       .  S
C1996      H2000   1.085   1_554  S
C1997      H2007   1.111       .  S
C1997      H2008   1.110       .  S
C1997      H2009   1.111   1_554  S
C1999      H2010   1.111       .  S
C1999      H2011   1.106       .  S
C1999      H2012   1.111       .  S
C2013      C2014   1.403       .  A
C2013      C2018   1.409       .  A
C2013      H2023   1.084       .  S
C2014      C2019   1.481       .  S
C2014      C2015   1.405       .  A
C2015      C2016   1.400       .  A
C2015      C2020   1.507       .  S
C2016      C2017   1.412       .  A
C2016      H2021   1.084       .  S
C2017      C2018   1.420       .  A
C2018      C2022   1.507       .  S
C2019      C2024   1.410       .  A
C2019      C2028   1.400       .  A
C2020      H2036   1.110       .  S
C2020      H2037   1.110       .  S
C2020      H2038   1.110       .  S
C2022      H2033   1.111       .  S
C2022      H2034   1.109       .  S
C2022      H2035   1.110       .  S
C2024      C2025   1.405       .  A
C2024      C2029   1.505       .  S
C2025      C2026   1.404       .  A
C2025      H2030   1.081       .  S
C2026      C2027   1.416       .  A
C2027      C2028   1.401       .  A
C2027      C2031   1.507       .  S
C2028      H2032   1.085       .  S
C2029      H2039   1.111       .  S
C2029      H2040   1.110       .  S
C2029      H2041   1.110       .  S
C2031      H2042   1.110       .  S
C2031      H2043   1.109       .  S
C2031      H2044   1.111       .  S
C2045      C2046   1.399       .  A
C2045      C2050   1.407       .  A
C2045      H2055   1.084       .  S
C2046      C2051   1.483       .  S
C2046      C2047   1.407       .  A
C2047      C2048   1.404       .  A
C2047      C2052   1.507       .  S
C2048      C2049   1.414       .  A
C2048      H2053   1.083       .  S
C2049      C2050   1.426       .  A
C2050      C2054   1.507       .  S
C2051      C2056   1.411       .  A
C2051      C2060   1.402       .  A
C2052      H2068   1.110       .  S
C2052      H2069   1.110       .  S
C2052      H2070   1.111       .  S
C2054      H2065   1.111       .  S
C2054      H2066   1.108       .  S
C2054      H2067   1.110       .  S
C2056      C2057   1.406   1_556  A
C2056      C2061   1.505       .  S
C2057      C2058   1.401       .  A
C2057      H2062   1.083       .  S
C2058      C2059   1.413   1_554  A
C2059      C2060   1.403       .  A
C2059      C2063   1.505   1_556  S
C2060      H2064   1.085       .  S
C2061      H2071   1.111       .  S
C2061      H2072   1.111       .  S
C2061      H2073   1.109       .  S
C2063      H2074   1.111       .  S
C2063      H2075   1.108       .  S
C2063      H2076   1.110   1_554  S
C2077      C2082   1.402       .  A
C2077      H2087   1.084       .  S
C2078      C2083   1.486       .  S
C2078      C2079   1.413       .  A
C2079      C2080   1.408       .  A
C2079      C2084   1.506       .  S
C2080      H2085   1.083       .  S
C2081      C2082   1.417       .  A
C2082      C2086   1.508       .  S
C2083      C2088   1.410       .  A
C2083      C2092   1.404       .  A
C2084      H2100   1.110       .  S
C2084      H2101   1.110       .  S
C2084      H2102   1.111       .  S
C2086      H2097   1.111       .  S
C2086      H2098   1.110       .  S
C2086      H2099   1.107       .  S
C2088      C2089   1.404       .  A
C2088      C2093   1.507       .  S
C2089      C2090   1.405       .  A
C2089      H2094   1.084       .  S
C2090      C2091   1.412       .  A
C2091      C2092   1.408       .  A
C2093      H2103   1.111       .  S
C2093      H2104   1.110       .  S
C2093      H2105   1.110       .  S
C2095      H2106   1.107       .  S
C2109      C2110   1.405       .  A
C2109      C2114   1.404       .  A
C2109      H2119   1.084       .  S
C2110      C2115   1.488       .  S
C2110      C2111   1.412       .  A
C2111      C2112   1.405       .  A
C2111      C2116   1.507       .  S
C2112      C2113   1.405       .  A
C2112      H2117   1.083       .  S
C2113      C2114   1.411       .  A
C2114      C2118   1.506       .  S
C2115      C2120   1.418       .  A
C2115      C2124   1.399       .  A
C2116      H2132   1.109       .  S
C2116      H2134   1.111       .  S
C2118      H2129   1.110       .  S
C2118      H2130   1.110       .  S
C2118      H2131   1.109       .  S
C2120      C2121   1.408       .  A
C2120      C2125   1.507       .  S
C2121      C2122   1.400       .  A
C2121      H2126   1.084       .  S
C2122      C2123   1.416       .  A
C2123      C2124   1.400       .  A
C2123      C2127   1.507       .  S
C2124      H2128   1.084       .  S
C2125      H2136   1.109       .  S
C2127      H2138   1.110       .  S
C2127      H2139   1.109       .  S
C2127      H2140   1.111       .  S
C2141      C2142   1.403       .  A
C2141      C2146   1.406       .  A
C2141      H2151   1.084       .  S
C2142      C2147   1.481       .  S
C2142      C2143   1.411       .  A
C2143      C2144   1.400       .  A
C2143      C2148   1.507       .  S
C2144      C2145   1.402       .  A
C2145      C2146   1.412       .  A
C2146      C2150   1.504       .  S
C2147      C2152   1.409       .  A
C2147      C2156   1.397       .  A
C2148      H2164   1.110       .  S
C2148      H2165   1.110       .  S
C2148      H2166   1.111       .  S
C2150      H2161   1.111       .  S
C2150      H2162   1.110       .  S
C2150      H2163   1.108       .  S
C2152      C2153   1.406       .  A
C2152      C2157   1.507       .  S
C2153      C2154   1.410       .  A
C2153      H2158   1.084       .  S
C2154      C2155   1.424       .  A
C2155      C2156   1.405       .  A
C2155      C2159   1.508       .  S
C2156      H2160   1.084       .  S
C2157      H2167   1.111       .  S
C2157      H2168   1.111       .  S
C2157      H2169   1.110       .  S
C2159      H2170   1.110       .  S
C2159      H2171   1.110       .  S
C2159      H2172   1.111       .  S
C2173      C2174   1.401       .  A
C2173      C2178   1.404       .  A
C2173      H2183   1.084       .  S
C2174      C2179   1.483       .  S
C2174      C2175   1.409       .  A
C2175      C2176   1.405       .  A
C2175      C2180   1.506       .  S
C2176      C2177   1.409       .  A
C2176      H2181   1.084       .  S
C2177      C2178   1.419       .  A
C2178      C2182   1.508       .  S
C2179      C2184   1.412       .  A
C2179      C2188   1.401       .  A
C2180      H2196   1.110       .  S
C2180      H2197   1.110       .  S
C2180      H2198   1.111       .  S
C2182      H2193   1.110       .  S
C2182      H2194   1.111       .  S
C2182      H2195   1.109       .  S
C2184      C2185   1.405       .  A
C2184      C2189   1.506       .  S
C2185      C2186   1.403       .  A
C2185      H2190   1.083       .  S
C2186      C2187   1.414       .  A
C2187      C2188   1.401       .  A
C2187      C2191   1.507       .  S
C2188      H2192   1.084       .  S
C2189      H2199   1.111       .  S
C2189      H2200   1.110       .  S
C2189      H2201   1.110       .  S
C2191      H2202   1.110       .  S
C2191      H2203   1.109       .  S
C2191      H2204   1.110       .  S
C2205      C2206   1.405       .  A
C2205      H2215   1.084       .  S
C2206      C2211   1.489       .  S
C2206      C2207   1.411       .  A
C2207      C2208   1.401       .  A
C2207      C2212   1.508       .  S
C2208      H2213   1.084       .  S
C2209      C2210   1.413       .  A
C2210      C2214   1.504       .  S
C2211      C2216   1.410       .  A
C2211      C2220   1.401       .  A
C2212      H2228   1.109       .  S
C2212      H2229   1.111       .  S
C2212      H2230   1.111       .  S
C2214      H2225   1.111       .  S
C2214      H2226   1.107       .  S
C2214      H2227   1.108       .  S
C2216      C2217   1.405       .  A
C2216      C2221   1.508       .  S
C2217      C2218   1.412       .  A
C2217      H2222   1.084       .  S
C2218      C2219   1.423       .  A
C2219      C2220   1.408       .  A
C2219      C2223   1.508       .  S
C2220      H2224   1.084       .  S
C2221      H2231   1.111       .  S
C2221      H2232   1.109       .  S
C2221      H2233   1.111       .  S
C2223      H2234   1.111       .  S
C2223      H2235   1.109       .  S
C2223      H2236   1.110       .  S
C2237      C2238   1.402       .  A
C2237      C2242   1.401       .  A
C2237      H2247   1.084       .  S
C2238      C2243   1.481       .  S
C2238      C2239   1.411       .  A
C2239      C2240   1.402       .  A
C2239      C2244   1.507       .  S
C2240      C2241   1.402       .  A
C2240      H2245   1.081       .  S
C2241      C2242   1.412       .  A
C2242      C2246   1.506       .  S
C2243      C2248   1.408       .  A
C2243      C2252   1.400       .  A
C2244      H2260   1.109       .  S
C2244      H2261   1.110       .  S
C2244      H2262   1.111       .  S
C2246      H2257   1.111       .  S
C2246      H2258   1.110       .  S
C2246      H2259   1.110       .  S
C2248      C2249   1.406       .  A
C2248      C2253   1.506       .  S
C2249      C2250   1.411       .  A
C2249      H2254   1.084       .  S
C2250      C2251   1.419       .  A
C2251      C2252   1.401       .  A
C2251      C2255   1.508       .  S
C2252      H2256   1.085       .  S
C2253      H2263   1.111       .  S
C2253      H2264   1.110       .  S
C2253      H2265   1.111       .  S
C2255      H2266   1.109       .  S
C2255      H2267   1.111       .  S
C2255      H2268   1.111       .  S
C2269      C2270   1.404       .  A
C2269      C2274   1.404       .  A
C2270      C2275   1.493       .  S
C2270      C2271   1.414       .  A
C2271      C2272   1.409       .  A
C2271      C2276   1.505       .  S
C2272      C2273   1.403       .  A
C2272      H2277   1.084       .  S
C2273      C2274   1.413       .  A
C2275      C2280   1.414       .  A
C2275      C2284   1.403       .  A
C2276      H2292   1.109       .  S
C2276      H2293   1.110       .  S
C2276      H2294   1.111       .  S
C2278      H2289   1.110       .  S
C2278      H2290   1.110       .  S
C2278      H2291   1.109       .  S
C2280      C2281   1.413       .  A
C2280      C2285   1.505       .  S
C2281      C2282   1.406       .  A
C2281      H2286   1.083       .  S
C2283      C2287   1.508       .  S
C2285      H2295   1.111       .  S
C2285      H2296   1.109       .  S
C2285      H2297   1.111       .  S
C2287      H2298   1.111       .  S
C2287      H2299   1.109       .  S
C2287      H2300   1.110       .  S
C2301      C2302   1.401       .  A
C2301      C2306   1.402       .  A
C2301      H2311   1.084       .  S
C2302      C2307   1.483       .  S
C2302      C2303   1.412       .  A
C2303      C2304   1.405       .  A
C2303      C2308   1.507       .  S
C2304      C2305   1.403       .  A
C2304      H2309   1.083       .  S
C2305      C2306   1.413       .  A
C2306      C2310   1.506       .  S
C2307      C2312   1.405       .  A
C2307      C2316   1.399       .  A
C2308      H2324   1.110       .  S
C2308      H2325   1.110       .  S
C2308      H2326   1.111       .  S
C2310      H2321   1.110       .  S
C2310      H2322   1.110       .  S
C2310      H2323   1.109       .  S
C2312      C2313   1.406       .  A
C2312      C2317   1.506       .  S
C2313      C2314   1.416       .  A
C2313      H2318   1.083       .  S
C2314      C2315   1.425       .  A
C2315      C2316   1.405       .  A
C2315      C2319   1.509       .  S
C2316      H2320   1.085       .  S
C2317      H2327   1.111       .  S
C2317      H2328   1.110       .  S
C2317      H2329   1.109       .  S
C2319      H2330   1.110       .  S
C2319      H2331   1.109       .  S
C2319      H2332   1.111       .  S
C2333      C2334   1.401       .  A
C2333      C2338   1.409       .  A
C2333      H2343   1.084       .  S
C2334      C2339   1.497       .  S
C2334      C2335   1.411       .  A
C2335      C2336   1.409       .  A
C2335      C2340   1.507       .  S
C2336      C2337   1.412       .  A
C2336      H2341   1.083       .  S
C2337      C2338   1.429       .  A
C2338      C2342   1.510       .  S
C2339      C2344   1.417       .  A
C2339      C2348   1.404       .  A
C2340      H2356   1.108       .  S
C2340      H2357   1.111       .  S
C2340      H2358   1.111       .  S
C2342      H2353   1.111       .  S
C2342      H2354   1.111       .  S
C2342      H2355   1.110       .  S
C2344      C2345   1.410       .  A
C2344      C2349   1.506       .  S
C2345      C2346   1.402       .  A
C2345      H2350   1.083       .  S
C2346      C2347   1.412       .  A
C2347      C2348   1.404       .  A
C2347      C2351   1.506       .  S
C2348      H2352   1.084       .  S
C2349      H2359   1.111       .  S
C2349      H2360   1.108       .  S
C2349      H2361   1.110       .  S
C2351      H2362   1.110       .  S
C2351      H2363   1.108       .  S
C2351      H2364   1.111       .  S
C2365      C2366   1.405       .  A
C2365      C2370   1.403       .  A
C2365      H2375   1.084       .  S
C2366      C2371   1.479       .  S
C2366      C2367   1.410       .  A
C2367      C2368   1.398       .  A
C2367      C2372   1.509       .  S
C2368      C2369   1.405       .  A
C2368      H2373   1.085       .  S
C2369      C2370   1.410       .  A
C2370      C2374   1.506       .  S
C2371      C2376   1.416       .  A
C2371      C2380   1.400       .  A
C2372      H2388   1.108       .  S
C2372      H2389   1.111       .  S
C2372      H2390   1.111       .  S
C2374      H2385   1.111       .  S
C2374      H2386   1.108       .  S
C2374      H2387   1.110       .  S
C2376      C2377   1.403       .  A
C2376      C2381   1.508       .  S
C2377      C2378   1.401       .  A
C2377      H2382   1.084       .  S
C2379      C2383   1.507       .  S
C2381      H2391   1.111       .  S
C2381      H2392   1.108       .  S
C2381      H2393   1.110       .  S
C2383      H2394   1.110       .  S
C2383      H2395   1.109       .  S
C2383      H2396   1.111       .  S
C2397      C2398   1.401       .  A
C2397      C2402   1.401       .  A
C2397      H2407   1.085       .  S
C2398      C2403   1.483       .  S
C2398      C2399   1.411       .  A
C2399      C2400   1.406       .  A
C2399      C2404   1.505       .  S
C2400      C2401   1.404       .  A
C2400      H2405   1.084       .  S
C2401      C2402   1.415       .  A
C2402      C2406   1.507       .  S
C2403      C2408   1.407       .  A
C2403      C2412   1.403       .  A
C2404      H2420   1.110       .  S
C2404      H2421   1.110       .  S
C2404      H2422   1.111       .  S
C2406      H2417   1.111       .  S
C2406      H2418   1.110       .  S
C2406      H2419   1.108       .  S
C2408      C2409   1.403       .  A
C2408      C2413   1.506       .  S
C2409      C2410   1.411       .  A
C2409      H2414   1.084       .  S
C2410      C2411   1.420       .  A
C2411      C2412   1.406       .  A
C2411      C2415   1.508       .  S
C2412      H2416   1.084       .  S
C2413      H2423   1.111       .  S
C2413      H2424   1.109       .  S
C2413      H2425   1.111       .  S
C2415      H2426   1.109       .  S
C2415      H2427   1.111       .  S
C2415      H2428   1.111       .  S
C2429      C2430   1.402       .  A
C2429      C2434   1.402       .  A
C2429      H2439   1.085       .  S
C2430      C2435   1.482       .  S
C2430      C2431   1.411       .  A
C2431      C2432   1.405       .  A
C2431      C2436   1.505       .  S
C2432      C2433   1.402       .  A
C2432      H2437   1.084       .  S
C2433      C2434   1.413       .  A
C2434      C2438   1.503       .  S
C2435      C2440   1.410       .  A
C2435      C2444   1.399       .  A
C2436      H2452   1.110       .  S
C2436      H2453   1.110       .  S
C2436      H2454   1.111       .  S
C2438      H2449   1.111       .  S
C2438      H2450   1.110       .  S
C2438      H2451   1.106       .  S
C2440      C2441   1.406       .  A
C2440      C2445   1.506       .  S
C2441      C2442   1.408       .  A
C2441      H2446   1.084       .  S
C2442      C2443   1.421       .  A
C2443      C2444   1.403       .  A
C2443      C2447   1.510       .  S
C2444      H2448   1.084       .  S
C2445      H2455   1.111       .  S
C2445      H2456   1.110       .  S
C2445      H2457   1.111       .  S
C2447      H2458   1.111       .  S
C2447      H2459   1.109       .  S
C2447      H2460   1.111   1_565  S
