geometry optimzed in LAMMPS
_audit_creation_date              2020-12-01 
_audit_creation_method            'lammps2cif' 
_symmetry_space_group_name_H-M    'P1' 
_symmetry_Int_Tables_number       1 
_symmetry_cell_setting            triclinic 
loop_ 
_symmetry_equiv_pos_as_xyz 
  x,y,z 
_cell_length_a                    35.85616455 
_cell_length_b                    37.172441986792194 
_cell_length_c                    38.05490986589587 
_cell_angle_alpha                 92.59367531320758 
_cell_angle_beta                  90.03095741133936 
_cell_angle_gamma                 90.22126146627456 
loop_ 
_atom_site_label 
_atom_site_type_symbol 
_atom_site_fract_x 
_atom_site_fract_y 
_atom_site_fract_z 
_atom_site_charge 
C1          C  0.20694260  0.20511838  0.21774380     0.87200
C2          C  0.23362800  0.18425936  0.24169120    -0.53000
C3          C  0.25553802  0.20528711  0.26439303     0.10100
C4          C  0.24878142  0.24614540  0.25972542     0.21100
C5          C  0.18499877  0.22966786  0.24348312    -0.53800
C6          C  0.20635561  0.25138075  0.26502320     0.10200
C7          C  0.23394525  0.22957944  0.19864422    -0.53300
C8          C  0.25580651  0.25113123  0.22000295     0.10800
H9          H  0.23673754  0.15528484  0.23991040     0.15300
H10         H  0.26495012  0.26473446  0.27716824     0.01100
H11         H  0.15471269  0.23066686  0.24382582     0.15600
H12         H  0.23666478  0.22906140  0.17025838     0.15400
C13         C  0.10276174  0.45653862  0.42164945     0.30700
C14         C  0.10074099  0.52111118  0.46080738     0.30700
C15         C  0.11660831  0.49014515  0.40382400    -0.05500
C16         C  0.06256274  0.46970321  0.43288214    -0.06300
C17         C  0.12134233  0.45731289  0.45775888    -0.06100
C18         C  0.11526054  0.52245031  0.42321843    -0.05500
C19         C  0.06153989  0.50295103  0.45344482    -0.06300
C20         C  0.12066323  0.48988686  0.47702795    -0.06100
C21         C  0.12147775  0.54950020  0.40030916    -0.31500
N22         N  0.12812385  0.53429996  0.36781626     0.15000
C23         C  0.12377505  0.49815958  0.36941141    -0.31500
H24         H  0.12541222  0.47910257  0.34710611     0.16900
C25         C  0.02443089  0.50866099  0.46253360    -0.30500
N26         N  0.00324062  0.48111440  0.44838659     0.13700
C27         C  0.02596815  0.45736924  0.43054546    -0.30500
C28         C  0.12540064  0.48276064  0.51188745    -0.30800
N29         N  0.12868949  0.44699995  0.51446830     0.14200
H30         H  0.12454642  0.50206224  0.53406499     0.16800
C31         C  0.12482575  0.43094717  0.48206945    -0.30800
H32         H  0.12388091  0.40213974  0.47659823     0.16800
H33         H  0.01625618  0.43237118  0.41827594     0.16800
H34         H  0.11966362  0.57810563  0.40659402     0.16900
H35         H  0.01338810  0.53088688  0.47851349     0.16800
C36         C  0.21504469  0.75827362  0.67797929     0.87200
C37         C  0.23834474  0.78141743  0.65315168    -0.53000
C38         C  0.25564210  0.76260620  0.62607198     0.10100
C39         C  0.25074684  0.72129011  0.62828206     0.21100
C40         C  0.18978586  0.73525022  0.65316488    -0.53800
C41         C  0.20807715  0.71550565  0.62767275     0.10200
C42         C  0.24475572  0.73280653  0.69172475    -0.53300
C43         C  0.26349736  0.71337724  0.66616028     0.10800
H44         H  0.24408150  0.80978552  0.65774393     0.15300
H45         H  0.26537122  0.70492574  0.60748046     0.01100
H46         H  0.15967224  0.73403820  0.65613678     0.15600
H47         H  0.25091930  0.73060993  0.71947388     0.15400
C48         C  0.44800845  0.09206818  0.41965553     0.30700
C49         C  0.51095082  0.08589691  0.46078125     0.30700
C50         C  0.44891946  0.11489853  0.45474692    -0.05500
C51         C  0.45793451  0.05356042  0.43056233    -0.06300
C52         C  0.48529304  0.10486539  0.40310637    -0.06100
C53         C  0.48058269  0.11132709  0.47533080    -0.05500
C54         C  0.49009603  0.05078036  0.45083112    -0.06300
C55         C  0.51737765  0.10203154  0.42421302    -0.06100
C56         C  0.47775373  0.13539069  0.50378146    -0.31500
N57         N  0.44514931  0.15348116  0.50154365     0.15000
C58         C  0.42783035  0.14182733  0.47129015    -0.31500
H59         H  0.40188501  0.15258681  0.46199532     0.16900
C60         C  0.49597953  0.01476207  0.45611504    -0.30500
N61         N  0.46789885  0.99549982  0.44046686     0.13700
C62         C  0.44463077  0.01858590  0.42437849    -0.30500
C63         C  0.54386762  0.12469307  0.41021761    -0.30800
N64         N  0.53039557  0.13845337  0.38053990     0.14200
H65         H  0.57032332  0.13304576  0.42149272     0.16800
C66         C  0.49434203  0.12804967  0.37667253    -0.30800
H67         H  0.47581365  0.13824438  0.35707583     0.16800
H68         H  0.42068873  0.01051439  0.40854573     0.16800
H69         H  0.49772806  0.13929960  0.52487753     0.16900
H70         H  0.51920047  0.00331497  0.46989722     0.16800
C71         C  0.75388191  0.25410987  0.17771747     0.87200
C72         C  0.77891477  0.27811382  0.20195219    -0.53000
C73         C  0.76041121  0.30416981  0.22158132     0.10100
C74         C  0.71759013  0.30387545  0.21485396     0.21100
C75         C  0.72347640  0.23944665  0.20157480    -0.53800
C76         C  0.70465925  0.26500302  0.22113812     0.10200
C77         C  0.73351880  0.28208308  0.15566329    -0.53300
C78         C  0.71375944  0.30772547  0.17461384     0.10800
H79         H  0.80884402  0.27456312  0.20373054     0.15300
H80         H  0.70176881  0.32381711  0.23121576     0.01100
H81         H  0.71764577  0.21086529  0.20323440     0.15600
H82         H  0.73445222  0.28238971  0.12722876     0.15400
C83         C  0.22187099  0.23690426  0.73458304     0.87200
C84         C  0.19934709  0.25972000  0.70943920    -0.53000
C85         C  0.21982044  0.28501543  0.69323300     0.10100
C86         C  0.26136650  0.28478662  0.70241930     0.21100
C87         C  0.25459693  0.22128871  0.71232664    -0.53800
C88         C  0.27371867  0.24546607  0.69327091     0.10200
C89         C  0.24220502  0.26393685  0.75971232    -0.53300
C90         C  0.26229940  0.28974500  0.74325703     0.10800
H91         H  0.16944027  0.25678207  0.70562845     0.15300
H92         H  0.27720993  0.30555487  0.68854212     0.01100
H93         H  0.26333576  0.19361774  0.71287141     0.15600
H94         H  0.24163405  0.26191273  0.78799921     0.15400
C95         C  0.87058291  0.50451507  0.48479772     0.30700
C96         C  0.86736946  0.46547574  0.42148338     0.30700
C97         C  0.86884476  0.52602333  0.45128109    -0.05500
C98         C  0.90619526  0.48164539  0.47593725    -0.06300
C99         C  0.83914540  0.47678676  0.48008089    -0.06100
C100        C  0.86732491  0.50642725  0.41946065    -0.05500
C101        C  0.90428283  0.46054487  0.44314564    -0.06300
C102        C  0.83754871  0.45742111  0.44833262    -0.06100
C103        C  0.86552610  0.53070101  0.39339011    -0.31500
N104        N  0.86507954  0.56435762  0.40870044     0.15000
C105        C  0.86892575  0.56186906  0.44390551    -0.31500
H106        H  0.87099737  0.58434041  0.46280964     0.16900
C107        C  0.94081720  0.45840876  0.43071618    -0.30500
N108        N  0.96428245  0.47618230  0.45348320     0.13700
C109        C  0.94347816  0.49182802  0.47963487    -0.30500
C110        C  0.81760684  0.42639343  0.45351084    -0.30800
N111        N  0.80739383  0.42628093  0.48758392     0.14200
H112        H  0.81451892  0.40368388  0.43488924     0.16800
C113        C  0.82068509  0.45655704  0.50422097    -0.30800
H114        H  0.82071036  0.46144613  0.53249891     0.16800
H115        H  0.95385834  0.51296094  0.49736210     0.16800
H116        H  0.86277833  0.52441970  0.36546768     0.16900
H117        H  0.94905624  0.44879050  0.40464006     0.16800
C118        C  0.75516471  0.78641572  0.20449934     0.87200
C119        C  0.73304059  0.80873982  0.23280091    -0.53000
C120        C  0.71318777  0.78907494  0.25624695     0.10100
C121        C  0.71918469  0.74809805  0.24941213     0.21100
C122        C  0.78047154  0.76396517  0.22715843    -0.53800
C123        C  0.76197651  0.74374045  0.25040564     0.10200
C124        C  0.72632808  0.76022617  0.18766323    -0.53300
C125        C  0.70822608  0.73943408  0.21087993     0.10800
H126        H  0.73567490  0.83763510  0.23626410     0.15300
H127        H  0.70413569  0.73060128  0.26717897     0.01100
H128        H  0.81053940  0.76357608  0.22445960     0.15600
H129        H  0.72080571  0.75850617  0.15960924     0.15400
C130        C  0.73338183  0.19116454  0.69005865     0.87200
C131        C  0.71356478  0.16290168  0.66598067    -0.53000
C132        C  0.69075582  0.17666796  0.64134568     0.10100
C133        C  0.68848380  0.21796767  0.64397343     0.21100
C134        C  0.75229854  0.21703993  0.66450645    -0.53800
C135        C  0.72857546  0.23115539  0.64091903     0.10200
C136        C  0.70201523  0.21511421  0.70635129    -0.53300
C137        C  0.67765021  0.22857084  0.68225064     0.10800
H138        H  0.71653394  0.13437739  0.66950017     0.15300
H139        H  0.67000687  0.22903516  0.62377196     0.01100
H140        H  0.78122043  0.22530323  0.66551954     0.15600
H141        H  0.70131530  0.22269272  0.73408644     0.15400
C142        C  0.45312090  0.86429505  0.47102040     0.30700
C143        C  0.50988625  0.86650683  0.42248037     0.30700
C144        C  0.44950781  0.83789419  0.43843649    -0.05500
C145        C  0.45975316  0.90086628  0.45427754    -0.06300
C146        C  0.49225316  0.85347801  0.48420310    -0.06100
C147        C  0.47812298  0.83891396  0.41365672    -0.05500
C148        C  0.48828019  0.90168512  0.42961086    -0.06300
C149        C  0.52111424  0.85476541  0.45949212    -0.06100
C150        C  0.46941105  0.81281392  0.38758459    -0.31500
N151        N  0.43628817  0.79734748  0.39517512     0.15000
C152        C  0.42458183  0.81153877  0.42660102    -0.31500
H153        H  0.39879995  0.80378954  0.43887438     0.16900
C154        C  0.49201623  0.93684867  0.41978783    -0.30500
N155        N  0.46657448  0.95747047  0.43766109     0.13700
C156        C  0.44693971  0.93599676  0.45915685    -0.30500
C157        C  0.54979520  0.83364980  0.47151527    -0.30800
N158        N  0.54031652  0.82097488  0.50326335     0.14200
H159        H  0.57440435  0.82577957  0.45674400     0.16800
C160        C  0.50453435  0.83108540  0.50994301    -0.30800
H161        H  0.48779806  0.82086734  0.53091638     0.16800
H162        H  0.42671239  0.94554569  0.47847600     0.16800
H163        H  0.48501790  0.80556881  0.36408424     0.16900
H164        H  0.51336126  0.94714181  0.40278409     0.16800
C165        C  0.22438758  0.74423727  0.15270227     0.87200
C166        C  0.19853699  0.71274556  0.16241840    -0.53000
C167        C  0.21643572  0.68350755  0.17487528     0.10100
C168        C  0.25925409  0.68783745  0.17472164     0.21100
C169        C  0.24864220  0.75189139  0.18538345    -0.53800
C170        C  0.26719041  0.72268934  0.19674014     0.10200
C171        C  0.25040927  0.72619004  0.12508609    -0.53300
C172        C  0.26891774  0.69693720  0.13655997     0.10800
H173        H  0.16838957  0.71329106  0.16026308     0.15300
H174        H  0.27474238  0.66438298  0.18413485     0.01100
H175        H  0.25183110  0.77859758  0.19787321     0.15600
H176        H  0.25448296  0.73617017  0.09920002     0.15400
C177        C  0.74605867  0.71250805  0.72491604     0.87200
C178        C  0.77168808  0.68946489  0.70099295    -0.53000
C179        C  0.75426423  0.66311658  0.68101700     0.10100
C180        C  0.71179642  0.66083569  0.68791522     0.21100
C181        C  0.71498356  0.72548954  0.70021260    -0.53800
C182        C  0.69714999  0.69880498  0.68081687     0.10200
C183        C  0.72478111  0.68561294  0.74722212    -0.53300
C184        C  0.70768482  0.65783085  0.72833218     0.10800
H185        H  0.80162086  0.69352159  0.70051556     0.15300
H186        H  0.69750230  0.63905280  0.67209274     0.01100
H187        H  0.70663854  0.75337089  0.69855166     0.15600
H188        H  0.72061399  0.68954781  0.77521767     0.15400
C189        C  0.51401322  0.46209426  0.06390856     0.30700
C190        C  0.45532369  0.50993338  0.06039439     0.30700
C191        C  0.51813492  0.49827712  0.08440693    -0.05500
C192        C  0.50315448  0.47347286  0.02609639    -0.06300
C193        C  0.47536580  0.44843802  0.07623234    -0.06100
C194        C  0.48864538  0.52179488  0.08319089    -0.05500
C195        C  0.47309638  0.49780763  0.02485670    -0.06300
C196        C  0.44551294  0.47231892  0.07450092    -0.06100
C197        C  0.49858218  0.55253442  0.10267681    -0.31500
N198        N  0.53361072  0.54836118  0.11533482     0.15000
C199        C  0.54604999  0.51546008  0.10379077    -0.31500
H200        H  0.57402259  0.50546794  0.10732694     0.16900
C201        C  0.46467005  0.50254947  0.99002900    -0.30500
N202        N  0.48890423  0.48290709  0.96988901     0.13700
C203        C  0.51161104  0.46414845  0.99111789    -0.30500
C204        C  0.41380865  0.45265660  0.08278926    -0.30800
N205        N  0.42378171  0.41890180  0.09111606     0.14200
H206        H  0.38520169  0.46160092  0.08252142     0.16800
C207        C  0.46112774  0.41582464  0.08633360    -0.30800
H208        H  0.47678966  0.39153409  0.09024239     0.16800
H209        H  0.53137151  0.44422684  0.98166681     0.16800
H210        H  0.48211094  0.57673896  0.10636463     0.16900
H211        H  0.44238986  0.51875860  0.98001297     0.16800
C212        C  0.51148082  0.50744283  0.84057135     0.30700
C213        C  0.44842842  0.46494628  0.84265979     0.30700
C214        C  0.51210721  0.47151241  0.81779901    -0.05500
C215        C  0.50014824  0.49456418  0.87715930    -0.06300
C216        C  0.47504037  0.52433010  0.82659314    -0.06100
C217        C  0.47975990  0.45098461  0.81842153    -0.05500
C218        C  0.46780432  0.47374028  0.87800929    -0.06300
C219        C  0.44279364  0.50280858  0.82797008    -0.06100
C220        C  0.48203000  0.42487172  0.79172057    -0.31500
N221        N  0.51595613  0.42673171  0.77603421     0.15000
C222        C  0.53440837  0.45513871  0.79195373    -0.31500
H223        H  0.56202816  0.46339383  0.78490168     0.16900
C224        C  0.46088986  0.46637610  0.91265170    -0.30500
N225        N  0.48874174  0.48104878  0.93275067     0.13700
C226        C  0.51273735  0.49865432  0.91165615    -0.30500
C227        C  0.41725260  0.51743426  0.80528462    -0.14000
N228        N  0.43159688  0.54779772  0.79235583     0.14200
H229        H  0.39080390  0.50611308  0.79671238     0.16800
C230        C  0.46743807  0.55115179  0.80335841    -0.30800
H231        H  0.48698574  0.57052092  0.79358463     0.16800
H232        H  0.53659643  0.51433194  0.92085947     0.16800
H233        H  0.45992469  0.40638916  0.78388352     0.16900
H234        H  0.43724459  0.45178441  0.92256608     0.16800
N235        N  0.02600287  0.05375935  0.98416191    -0.05400
N236        N  0.03301936  0.07680470  0.01096428    -0.57500
N237        N  0.05194039  0.02537321  0.90275294    -0.05100
N238        N  0.07616285  0.02919840  0.87713096    -0.59600
N239        N  0.02701225  0.05116246  0.90281015    -0.04700
N240        N  0.03359559  0.07287420  0.87711510    -0.57500
N241        N  0.05055519  0.02752978  0.98356311    -0.04400
N242        N  0.07446762  0.03212619  0.00970704    -0.60000
C243        C  0.06357732  0.06300138  0.02661696     0.96800
C244        C  0.06407518  0.05870555  0.86100962     0.96600
N245        N  0.02362843  0.91626043  0.89998216    -0.05600
N246        N  0.03146769  0.89088741  0.87564187    -0.58100
N247        N  0.04813868  0.94309522  0.98146365    -0.03700
N248        N  0.07331112  0.93582025  0.00533500    -0.59300
N249        N  0.02171169  0.91848767  0.98036838    -0.05600
N250        N  0.02850976  0.89377739  0.00337080    -0.58400
N251        N  0.04998695  0.94097541  0.90125676    -0.03300
N252        N  0.07618481  0.93299548  0.87796203    -0.59400
Mn253      Mn  0.05107389  0.98440755  0.94226915     1.18400
C254        C  0.06445312  0.90172164  0.86217361     0.98900
C255        C  0.06073289  0.90503257  0.01884535     0.99500
N256        N  0.93999190  0.05460825  0.89991841    -0.05600
N257        N  0.93554431  0.07700195  0.87421855    -0.61900
N258        N  0.91018427  0.03383203  0.97931147    -0.04400
N259        N  0.88428484  0.04262747  0.00286232    -0.62600
N260        N  0.93736013  0.05766298  0.98094988    -0.05100
N261        N  0.93043744  0.08298919  0.00550670    -0.62200
N262        N  0.91385898  0.02966615  0.89828151    -0.04000
N263        N  0.89134589  0.03442935  0.87149760    -0.62900
Mn264      Mn  0.98273292  0.05555903  0.94219471     1.10700
C265        C  0.90543278  0.06369210  0.85629454     1.00100
C266        C  0.89729964  0.07324562  0.01940824     1.00200
N267        N  0.93402150  0.92349859  0.97944625    -0.05100
N268        N  0.92829607  0.90384424  0.00699490    -0.60500
N269        N  0.91034993  0.94461896  0.89767850    -0.04500
N270        N  0.88608417  0.93729686  0.87212404    -0.57300
N271        N  0.93572306  0.91919995  0.89818752    -0.05800
N272        N  0.92942503  0.89443919  0.87292790    -0.60100
N273        N  0.90916718  0.94941816  0.97864555    -0.04800
N274        N  0.88611168  0.94798975  0.00544681    -0.57300
Mn275      Mn  0.97845972  0.91820063  0.93946900     1.20200
Mn276      Mn  0.90963435  0.98929836  0.93832498     1.10100
Cl277      Cl  0.98041040  0.98686539  0.94062719    -0.85200
C278        C  0.89839070  0.91957698  0.02288220     0.97100
C279        C  0.89867489  0.90614967  0.85644892     0.96900
C280        C  0.80888271  0.76910902  0.79124634    -0.11200
C281        C  0.80953992  0.80234289  0.77566118     0.11400
C282        C  0.79272575  0.80567581  0.74253785    -0.03000
C283        C  0.77232741  0.77626475  0.72779302    -0.05700
C284        C  0.76845308  0.74314322  0.74461327    -0.16500
C285        C  0.79078654  0.73877492  0.77549644     0.02400
C286        C  0.83081128  0.83211965  0.79380186     0.12400
C287        C  0.79758714  0.83970257  0.72230891     0.63000
H288        H  0.76097601  0.77877847  0.70179148     0.12400
C289        C  0.79818454  0.70300475  0.79197278     0.55100
H290        H  0.82373293  0.76691279  0.81587190     0.08200
C291        C  0.81465423  0.85447376  0.82070840    -0.05600
C292        C  0.83737351  0.87994434  0.83907643    -0.06300
C293        C  0.87583634  0.88236195  0.83250290    -0.15900
C294        C  0.89183304  0.86035431  0.80504809    -0.01500
C295        C  0.86882703  0.83562486  0.78604800    -0.09100
C296        C  0.77408691  0.85002384  0.83119500     0.65200
H297        H  0.82561585  0.89671990  0.86024860     0.10700
C298        C  0.93303323  0.86236487  0.79601452     0.63600
H299        H  0.88066768  0.81771078  0.76579321     0.08000
F300        F  0.76931069  0.69484179  0.81415445    -0.19400
F301        F  0.83055780  0.70428417  0.81190989    -0.15700
F302        F  0.80307949  0.67591709  0.76651257    -0.19200
F303        F  0.83492812  0.84461452  0.71478360    -0.22500
F304        F  0.78492075  0.86924943  0.74209503    -0.24000
F305        F  0.77812995  0.83797496  0.69084253    -0.18000
F306        F  0.95375881  0.84632697  0.82160244    -0.20500
F307        F  0.94409071  0.89789290  0.79386366    -0.21600
F308        F  0.94071627  0.84478447  0.76398543    -0.18800
F309        F  0.76335348  0.87575561  0.85658855    -0.18900
F310        F  0.76886374  0.81644853  0.84465442    -0.22800
F311        F  0.75116852  0.85312804  0.80229921    -0.24400
C312        C  0.66719857  0.59791559  0.79790277    -0.11200
C313        C  0.63092061  0.59174092  0.78551422     0.11400
C314        C  0.62095822  0.60408808  0.75200759    -0.03000
C315        C  0.64715959  0.62440219  0.73323964    -0.05700
C316        C  0.68357425  0.63074688  0.74592574    -0.16500
C317        C  0.69441161  0.61433466  0.77740063     0.02400
C318        C  0.60460731  0.57071383  0.80732184     0.12400
C319        C  0.58278121  0.59590473  0.73627552     0.63000
H320        H  0.63895154  0.63630271  0.70898513     0.12400
C321        C  0.73440403  0.61070350  0.78942542     0.55100
H322        H  0.67495732  0.58825997  0.82332215     0.08200
C323        C  0.60904238  0.53333576  0.81208354    -0.05600
C324        C  0.58087242  0.51489689  0.82987219    -0.06300
C325        C  0.54686849  0.53137718  0.83922105    -0.15900
C326        C  0.54655804  0.56977029  0.84158654    -0.01500
C327        C  0.57485469  0.58868010  0.82435028    -0.09100
C328        C  0.64216302  0.51243427  0.79698270     0.65200
H329        H  0.58436143  0.48673926  0.83486735     0.10700
C330        C  0.51937869  0.59215808  0.86391217     0.63600
H331        H  0.57363885  0.61779675  0.82408507     0.08000
F332        F  0.74153931  0.57497247  0.79559868    -0.19400
F333        F  0.73970728  0.63085411  0.82042947    -0.15700
F334        F  0.75972641  0.62105907  0.76454794    -0.19200
F335        F  0.55565856  0.61402838  0.75575255    -0.22500
F336        F  0.57573301  0.55927849  0.73633833    -0.24000
F337        F  0.58035661  0.60632798  0.70188818    -0.18000
F338        F  0.53936809  0.61372820  0.88783417    -0.20500
F339        F  0.49520912  0.57149228  0.88280301    -0.21600
F340        F  0.49891849  0.61426215  0.84298296    -0.18800
F341        F  0.63815499  0.47574019  0.80068900    -0.18900
F342        F  0.67449013  0.52321375  0.81420826    -0.22800
F343        F  0.64573255  0.51829040  0.76150650    -0.24400
C344        C  0.19490489  0.82714730  0.10191315    -0.11200
C345        C  0.15724786  0.82940638  0.11127717     0.11400
C346        C  0.14361657  0.80925109  0.13909527    -0.03000
C347        C  0.16766860  0.78466832  0.15435101    -0.05700
C348        C  0.20410088  0.77827649  0.14147393    -0.16500
C349        C  0.21937659  0.80367659  0.11828122     0.02400
C350        C  0.13193732  0.84970293  0.08888509     0.12400
C351        C  0.10338935  0.81247359  0.15149594     0.63000
H352        H  0.15744284  0.76943369  0.17585781     0.12400
C353        C  0.26063693  0.80880422  0.11062898     0.55100
H354        H  0.20532142  0.84395517  0.08149410     0.08200
C355        C  0.12761245  0.88745960  0.09245556    -0.05600
C356        C  0.10262287  0.90402118  0.06984907    -0.06300
C357        C  0.08309918  0.88423009  0.04338430    -0.15900
C358        C  0.08852883  0.84646411  0.03912651    -0.01500
C359        C  0.11276791  0.82989574  0.06237061    -0.09100
C360        C  0.15026857  0.91031563  0.11885302     0.65200
H361        H  0.09881299  0.93292173  0.07206563     0.10700
C362        C  0.07053082  0.82377409  0.00947164     0.63600
H363        H  0.11739499  0.80111349  0.05990419     0.08000
F364        F  0.26926686  0.84516600  0.11325448    -0.19400
F365        F  0.26843929  0.79607167  0.07672896    -0.15700
F366        F  0.28358743  0.79209465  0.13394850    -0.19200
F367        F  0.07949867  0.80072214  0.12484330    -0.22500
F368        F  0.09529963  0.84790145  0.16093388    -0.24000
F369        F  0.09659404  0.79207635  0.18037840    -0.18000
F370        F  0.07883917  0.83812474  0.97747408    -0.20500
F371        F  0.03231658  0.82287621  0.01408274    -0.21600
F372        F  0.08320654  0.78857690  0.00837191    -0.18800
F373        F  0.13975146  0.94615148  0.11937228    -0.18900
F374        F  0.18760531  0.90839562  0.11002975    -0.22800
F375        F  0.14560805  0.89819259  0.15234194    -0.24400
C376        C  0.31721039  0.63438275  0.06874926    -0.11200
C377        C  0.35032077  0.62781361  0.08684884     0.11400
C378        C  0.35900438  0.64820063  0.11810003    -0.03000
C379        C  0.33204222  0.67188543  0.13232786    -0.05700
C380        C  0.29755725  0.67657184  0.11577468    -0.16500
C381        C  0.29045482  0.65884558  0.08249391     0.02400
C382        C  0.37332670  0.59653242  0.07515261     0.12400
C383        C  0.39652219  0.64485371  0.13635026     0.63000
H384        H  0.33736581  0.68649859  0.15711253     0.12400
C385        C  0.25486626  0.66458779  0.06173039     0.55100
H386        H  0.31196367  0.61905752  0.04435162     0.08200
C387        C  0.36797266  0.56293087  0.08988391    -0.05600
C388        C  0.39523109  0.53649404  0.08432768    -0.06300
C389        C  0.42571153  0.54013068  0.06124506    -0.15900
C390        C  0.43055245  0.57468998  0.04601819    -0.01500
C391        C  0.40330976  0.60153180  0.05249097    -0.09100
C392        C  0.33437485  0.55545736  0.11296284     0.65200
H393        H  0.39454953  0.51489753  0.10177768     0.10700
C394        C  0.46424279  0.58750717  0.02534583     0.63600
H395        H  0.40681582  0.62780118  0.04162973     0.08000
F396        F  0.25117877  0.63955114  0.03386973    -0.19400
F397        F  0.25558854  0.69833183  0.04795763    -0.15700
F398        F  0.22381525  0.66155707  0.08290860    -0.19200
F399        F  0.42456015  0.65522428  0.11399379    -0.22500
F400        F  0.40274470  0.60976010  0.14527371    -0.24000
F401        F  0.39861737  0.66651169  0.16687314    -0.18000
F402        F  0.45352462  0.59240486  0.99097552    -0.20500
F403        F  0.49457924  0.56503760  0.02503942    -0.21600
F404        F  0.47646286  0.62027689  0.03993298    -0.18800
F405        F  0.33273588  0.51973845  0.12173829    -0.18900
F406        F  0.30187541  0.56298162  0.09520554    -0.22800
F407        F  0.33592304  0.57658676  0.14374262    -0.24400
C408        C  0.61768786  0.78921957  0.56213374    -0.11200
C409        C  0.60208427  0.75778015  0.57493992     0.11400
C410        C  0.56591513  0.74697248  0.56360987    -0.03000
C411        C  0.54709843  0.76756344  0.53881703    -0.05700
C412        C  0.56283464  0.79895089  0.52560460    -0.16500
C413        C  0.59874828  0.81014836  0.53782370     0.02400
C414        C  0.62382020  0.73800564  0.60154874     0.12400
C415        C  0.54689739  0.71443812  0.57846073     0.63000
H416        H  0.51940272  0.75974753  0.52999191     0.12400
C417        C  0.61720084  0.84418877  0.52578584     0.55100
H418        H  0.64510477  0.79734192  0.57157279     0.08200
C419        C  0.65348898  0.71433781  0.59206298    -0.05600
C420        C  0.67469497  0.69904395  0.61893070    -0.06300
C421        C  0.66762649  0.70728562  0.65470193    -0.15900
C422        C  0.63625105  0.72889546  0.66399854    -0.01500
C423        C  0.61568382  0.74474080  0.63727134    -0.09100
C424        C  0.66362111  0.70650021  0.55375071     0.65200
H425        H  0.69842304  0.68220094  0.61213907     0.10700
C426        C  0.62325697  0.73603053  0.70160697     0.63600
H427        H  0.59292915  0.76277147  0.64441326     0.08000
F428        F  0.62963478  0.83830012  0.49171088    -0.19400
F429        F  0.64769769  0.85403138  0.54643909    -0.15700
F430        F  0.59229629  0.87255491  0.52753465    -0.19200
F431        F  0.54057791  0.72074601  0.61402813    -0.22500
F432        F  0.56917164  0.68436251  0.57362763    -0.24000
F433        F  0.51291683  0.70710411  0.56235032    -0.18000
F434        F  0.63103803  0.77138914  0.71197778    -0.20500
F435        F  0.63981409  0.71355504  0.72494581    -0.21600
F436        F  0.58513021  0.73049080  0.70346316    -0.18800
F437        F  0.69165099  0.68109191  0.55010045    -0.18900
F438        F  0.67590739  0.73769884  0.53897416    -0.22800
F439        F  0.63280150  0.69350217  0.53533453    -0.24400
C440        C  0.40118984  0.73758840  0.31971728    -0.11200
C441        C  0.36836612  0.75573805  0.31126535     0.11400
C442        C  0.35582155  0.78484187  0.33339289    -0.03000
C443        C  0.37846201  0.79680708  0.36167689    -0.05700
C444        C  0.41219824  0.77978482  0.36936706    -0.16500
C445        C  0.42289810  0.74855290  0.34917041     0.02400
C446        C  0.34644921  0.74308531  0.28002504     0.12400
C447        C  0.31869047  0.80318889  0.32716131     0.63000
H448        H  0.37051912  0.82038028  0.37764015     0.12400
C449        C  0.45576912  0.72525080  0.35830545     0.55100
H450        H  0.40959495  0.71430479  0.30346894     0.08200
C451        C  0.35253305  0.75678837  0.24640546    -0.05600
C452        C  0.32679823  0.74798107  0.21941241    -0.06300
C453        C  0.29550132  0.72619438  0.22522394    -0.15900
C454        C  0.29049187  0.71124728  0.25851056    -0.01500
C455        C  0.31665337  0.71948555  0.28522557    -0.09100
C456        C  0.38572125  0.78094271  0.23936146     0.65200
H457        H  0.33028779  0.75887544  0.19368586     0.10700
C458        C  0.25669200  0.68852174  0.26657810     0.63600
H459        H  0.31302277  0.70909828  0.31114842     0.08000
F460        F  0.44373215  0.69003446  0.36081762    -0.19400
F461        F  0.47216407  0.73581529  0.39001145    -0.15700
F462        F  0.48227027  0.72641457  0.33200167    -0.19200
F463        F  0.28991886  0.77864873  0.33004362    -0.22500
F464        F  0.31786142  0.81680717  0.29398052    -0.24000
F465        F  0.31239475  0.83137675  0.35143335    -0.18000
F466        F  0.25766914  0.65674194  0.24644841    -0.20500
F467        F  0.22461554  0.70730821  0.25936605    -0.21600
F468        F  0.25545957  0.67985555  0.30155853    -0.18800
F469        F  0.38618236  0.79160096  0.20496464    -0.18900
F470        F  0.41840216  0.76259620  0.24538007    -0.22800
F471        F  0.38467252  0.81158125  0.26131163    -0.24400
C472        C  0.77458205  0.14219481  0.77003932    -0.11200
C473        C  0.81263574  0.14219891  0.76218156     0.11400
C474        C  0.82484139  0.15602411  0.73029079    -0.03000
C475        C  0.79840103  0.17112451  0.70803427    -0.05700
C476        C  0.75986368  0.17318951  0.71626597    -0.16500
C477        C  0.74766091  0.15535523  0.74692448     0.02400
C478        C  0.83834249  0.12347886  0.78588904     0.12400
C479        C  0.86558544  0.15383545  0.71927279     0.63000
H480        H  0.80812603  0.17924620  0.68286494     0.12400
C481        C  0.70740787  0.14756485  0.75680455     0.55100
H482        H  0.76564130  0.12985593  0.79393793     0.08200
C483        C  0.85314207  0.14040238  0.81694457    -0.05600
C484        C  0.87642379  0.12034953  0.83848133    -0.06300
C485        C  0.88423773  0.08394067  0.83035004    -0.15900
C486        C  0.86985550  0.06720192  0.79896008    -0.01500
C487        C  0.84685636  0.08735384  0.77734243    -0.09100
C488        C  0.84354468  0.17909088  0.82769196     0.65200
H489        H  0.88753115  0.13258149  0.86267407     0.10700
C490        C  0.87944911  0.02857194  0.78783455     0.63600
H491        H  0.83486964  0.07493679  0.75360979     0.08000
F492        F  0.69693038  0.17080823  0.78436680    -0.19400
F493        F  0.70438997  0.11261109  0.76768121    -0.15700
F494        F  0.68263934  0.15025988  0.72950871    -0.19200
F495        F  0.87560959  0.11822125  0.71330771    -0.22500
F496        F  0.88807588  0.16918052  0.74541722    -0.24000
F497        F  0.87229442  0.17170650  0.68875584    -0.18000
F498        F  0.86345959  0.00516098  0.81071282    -0.20500
F499        F  0.91775057  0.02421877  0.78791921    -0.21600
F500        F  0.86657737  0.01935200  0.75429456    -0.18800
F501        F  0.86169717  0.19062140  0.85831517    -0.18900
F502        F  0.80559208  0.18205215  0.83339111    -0.22800
F503        F  0.85378342  0.20166119  0.80145686    -0.24400
C504        C  0.60101393  0.28468663  0.72881071    -0.11200
C505        C  0.59462022  0.31154624  0.70474461     0.11400
C506        C  0.61384613  0.30950451  0.67218220    -0.03000
C507        C  0.64201601  0.28355965  0.66713880    -0.05700
C508        C  0.64775936  0.25593521  0.69081212    -0.16500
C509        C  0.62443433  0.25519297  0.72094230     0.02400
C510        C  0.56943853  0.34192756  0.71595821     0.12400
C511        C  0.60500457  0.33278556  0.64148143     0.63000
H512        H  0.65901767  0.28473629  0.64374304     0.12400
C513        C  0.62092792  0.22273526  0.74341706     0.55100
H514        H  0.58658186  0.28623554  0.75379495     0.08200
C515        C  0.53392032  0.33607569  0.73106533    -0.05600
C516        C  0.51688923  0.36454007  0.75041360    -0.06300
C517        C  0.53114672  0.39997848  0.75090082    -0.15900
C518        C  0.56225432  0.40684331  0.72892532    -0.01500
C519        C  0.58287207  0.37743053  0.71490542    -0.09100
C520        C  0.51322922  0.30034814  0.72783885     0.65200
H521        H  0.49228325  0.35851120  0.76543184     0.10700
C522        C  0.57335729  0.44388838  0.71735157     0.63600
H523        H  0.60921689  0.38241061  0.70204249     0.08000
F524        F  0.62437496  0.19129704  0.72290843    -0.19400
F525        F  0.64763999  0.22424466  0.76955275    -0.15700
F526        F  0.58623040  0.22175446  0.75935704    -0.19200
F527        F  0.63330211  0.35766178  0.63764009    -0.22500
F528        F  0.57143216  0.35066782  0.64544009    -0.24000
F529        F  0.60251549  0.31125227  0.61090903    -0.18000
F530        F  0.60541288  0.45520654  0.73478416    -0.20500
F531        F  0.54534508  0.46894855  0.72305080    -0.21600
F532        F  0.58058197  0.44225473  0.68158643    -0.18800
F533        F  0.47582374  0.30636731  0.72135981    -0.18900
F534        F  0.51635596  0.28274874  0.75893249    -0.22800
F535        F  0.52653919  0.27836126  0.70037781    -0.24400
C536        C  0.82228408  0.87373391  0.07282461    -0.11200
C537        C  0.83925417  0.87095432  0.10569824     0.11400
C538        C  0.87607979  0.88372466  0.11141574    -0.03000
C539        C  0.89462889  0.89978032  0.08358787    -0.05700
C540        C  0.87717077  0.90329822  0.05096752    -0.16500
C541        C  0.84043570  0.89027540  0.04528291     0.02400
C542        C  0.81860663  0.85111543  0.13214698     0.12400
C543        C  0.89576964  0.87969471  0.14635485     0.63000
H544        H  0.92297968  0.90955801  0.08697557     0.12400
C545        C  0.82061964  0.89332687  0.01024599     0.55100
H546        H  0.79447465  0.86270976  0.06899520     0.08200
C547        C  0.78810521  0.86613726  0.15085695    -0.05600
C548        C  0.76740906  0.84391585  0.17251623    -0.06300
C549        C  0.77667289  0.80742692  0.17697879    -0.15900
C550        C  0.80572842  0.79204842  0.15509966    -0.01500
C551        C  0.82666533  0.81471718  0.13426115    -0.09100
C552        C  0.77758887  0.90549751  0.14797785     0.65200
H553        H  0.74280002  0.85523775  0.18498052     0.10700
C554        C  0.81667534  0.75256475  0.15074913     0.63600
H555        H  0.84902089  0.80346152  0.11802682     0.08000
F556        F  0.81251281  0.92904007  0.00512096    -0.19400
F557        F  0.78744682  0.87412638  0.00896695    -0.15700
F558        F  0.84299536  0.87999213  0.98309984    -0.19200
F559        F  0.90195959  0.84365783  0.15162201    -0.22500
F560        F  0.87410977  0.89399623  0.17354772    -0.24000
F561        F  0.92987162  0.89731543  0.14746058    -0.18000
F562        F  0.81625549  0.74216152  0.11534348    -0.20500
F563        F  0.79359390  0.72939068  0.16729105    -0.21600
F564        F  0.85244782  0.74831525  0.16349556    -0.18800
F565        F  0.74830801  0.91527842  0.17006431    -0.18900
F566        F  0.76690693  0.91191902  0.11394870    -0.22800
F567        F  0.80779900  0.92720138  0.15702498    -0.24400
C568        C  0.66139361  0.65666507  0.16633103    -0.11200
C569        C  0.62529700  0.65946943  0.17985302     0.11400
C570        C  0.61719732  0.68623463  0.20632023    -0.03000
C571        C  0.64492060  0.71211372  0.21548888    -0.05700
C572        C  0.68062805  0.71073116  0.20013419    -0.16500
C573        C  0.68958843  0.68118625  0.17660144     0.02400
C574        C  0.59738831  0.63314601  0.16541663     0.12400
C575        C  0.58007000  0.68653896  0.22543148     0.63000
H576        H  0.63895305  0.73361608  0.23479977     0.12400
C577        C  0.72868625  0.67428803  0.16291382     0.55100
H578        H  0.66718351  0.63501176  0.14710522     0.08200
C579        C  0.57919135  0.63830822  0.13298455    -0.05600
C580        C  0.55813102  0.60978250  0.11754634    -0.06300
C581        C  0.55526117  0.57638672  0.13312054    -0.15900
C582        C  0.57252546  0.57159366  0.16609920    -0.01500
C583        C  0.59362608  0.60016604  0.18160118    -0.09100
C584        C  0.58270386  0.67351314  0.11438467     0.65200
H585        H  0.54437956  0.61288326  0.09253161     0.10700
C586        C  0.56852769  0.53675463  0.18506866     0.63600
H587        H  0.60849309  0.59655639  0.20597364     0.08000
F588        F  0.73698829  0.69820598  0.13732476    -0.19400
F589        F  0.73238456  0.63979750  0.14800558    -0.15700
F590        F  0.75398629  0.67774708  0.19024886    -0.19200
F591        F  0.57599398  0.65488201  0.24279924    -0.22500
F592        F  0.55104383  0.68933061  0.20184192    -0.24000
F593        F  0.57764116  0.71501670  0.25004712    -0.18000
F594        F  0.59007312  0.51021553  0.16871663    -0.20500
F595        F  0.53160752  0.52581623  0.18500370    -0.21600
F596        F  0.58008232  0.54084795  0.21974393    -0.18800
F597        F  0.56173427  0.67316579  0.08380693    -0.18900
F598        F  0.61949787  0.67959329  0.10553862    -0.22800
F599        F  0.57040888  0.70174470  0.13616856    -0.24400
C600        C  0.64869958  0.80701032  0.33654417    -0.11200
C601        C  0.63447492  0.84074205  0.32923170     0.11400
C602        C  0.64986192  0.85987839  0.30168841    -0.03000
C603        C  0.67437107  0.84169588  0.27822146    -0.05700
C604        C  0.68845798  0.80688129  0.28437311    -0.16500
C605        C  0.67749748  0.79090603  0.31637178     0.02400
C606        C  0.60211908  0.85421109  0.34993675     0.12400
C607        C  0.64147600  0.89961568  0.29808676     0.63000
H608        H  0.68204168  0.85502617  0.25475954     0.12400
C609        C  0.69636943  0.75896584  0.33217968     0.55100
H610        H  0.63758947  0.79350381  0.35896393     0.08200
C611        C  0.56529600  0.84692554  0.33855107    -0.05600
C612        C  0.53585393  0.85767250  0.36082151    -0.06300
C613        C  0.54200967  0.86969514  0.39591954    -0.15900
C614        C  0.57848050  0.88298522  0.40461922    -0.01500
C615        C  0.60817302  0.87368709  0.38178077    -0.09100
C616        C  0.55718470  0.82608310  0.30402064     0.65200
H617        H  0.50773097  0.85619741  0.35094215     0.10700
C618        C  0.58810487  0.90889019  0.43539925     0.63600
H619        H  0.63643297  0.88147237  0.38898311     0.08000
F620        F  0.67758018  0.72753266  0.32239949    -0.19400
F621        F  0.69604238  0.76256457  0.36857972    -0.15700
F622        F  0.73324531  0.75679348  0.32243381    -0.19200
F623        F  0.65370761  0.91867788  0.32799211    -0.22500
F624        F  0.60365326  0.90519115  0.29432523    -0.24000
F625        F  0.65942913  0.91338178  0.26941047    -0.18000
F626        F  0.61547472  0.89414135  0.45568139    -0.20500
F627        F  0.55842283  0.91805901  0.45686211    -0.21600
F628        F  0.60195301  0.94037807  0.42228924    -0.18800
F629        F  0.51928192  0.82156099  0.29836659    -0.18900
F630        F  0.57312184  0.79229266  0.30456033    -0.22800
F631        F  0.57170691  0.84394385  0.27605221    -0.24400
C632        C  0.86025395  0.54839880  0.58089553    -0.11200
C633        C  0.82840702  0.56963216  0.57617448     0.11400
C634        C  0.81129778  0.56898741  0.54279489    -0.03000
C635        C  0.82781913  0.54878418  0.51505878    -0.05700
C636        C  0.86076919  0.52812004  0.51849429    -0.16500
C637        C  0.87548615  0.52586669  0.55330838     0.02400
C638        C  0.81276527  0.59241754  0.60609588     0.12400
C639        C  0.77523568  0.58927093  0.53625691     0.63000
H640        H  0.81371509  0.54798243  0.48995523     0.12400
C641        C  0.90452433  0.49858792  0.56333529     0.55100
H642        H  0.87273047  0.54889376  0.60683275     0.08200
C643        C  0.79035560  0.57816415  0.63293384    -0.05600
C644        C  0.77194677  0.60217564  0.65694209    -0.06300
C645        C  0.77484634  0.63967717  0.65467367    -0.15900
C646        C  0.79706196  0.65389387  0.62752021    -0.01500
C647        C  0.81650106  0.62985496  0.60453858    -0.09100
C648        C  0.78531008  0.53784917  0.63579392     0.65200
H649        H  0.75494396  0.59182598  0.67775776     0.10700
C650        C  0.79900324  0.69400902  0.62106981     0.63600
H651        H  0.83383035  0.64018414  0.58394078     0.08000
F652        F  0.90245694  0.49194207  0.59881301    -0.19400
F653        F  0.93975061  0.51167026  0.55684233    -0.15700
F654        F  0.89905425  0.46598541  0.54526290    -0.19200
F655        F  0.78224856  0.62586635  0.53674753    -0.22500
F656        F  0.74916097  0.58219720  0.56182682    -0.24000
F657        F  0.75954125  0.57934580  0.50399845    -0.18000
F658        F  0.82231462  0.71128251  0.64534116    -0.20500
F659        F  0.76390707  0.70916551  0.62335297    -0.21600
F660        F  0.81278987  0.70024119  0.58790039    -0.18800
F661        F  0.76094499  0.52981325  0.66257888    -0.18900
F662        F  0.81925138  0.52219717  0.64276442    -0.22800
F663        F  0.77117422  0.52284396  0.60463039    -0.24400
C664        C  0.75760592  0.31941291  0.60249513    -0.11200
C665        C  0.75304412  0.31096167  0.56656874     0.11400
C666        C  0.74153512  0.27604488  0.55484433    -0.03000
C667        C  0.73415971  0.25058161  0.58017426    -0.05700
C668        C  0.73913772  0.25893500  0.61622159    -0.16500
C669        C  0.75059096  0.29407927  0.62783824     0.02400
C670        C  0.76432741  0.33875197  0.54225882     0.12400
C671        C  0.73780084  0.26569059  0.51592050     0.63000
H672        H  0.72484764  0.22370271  0.57205521     0.12400
C673        C  0.75517031  0.30538868  0.66652618     0.55100
H674        H  0.76740644  0.34617636  0.61044306     0.08200
C675        C  0.74095707  0.36808309  0.53484771    -0.05600
C676        C  0.75574502  0.39594885  0.51528399    -0.06300
C677        C  0.79312948  0.39575963  0.50473920    -0.15900
C678        C  0.81669508  0.36691254  0.51293680    -0.01500
C679        C  0.80153375  0.33835352  0.53108661    -0.09100
C680        C  0.70139375  0.37077287  0.54900828     0.65200
H681        H  0.73882166  0.41891041  0.50920098     0.10700
C682        C  0.85808106  0.36745677  0.50444996     0.63600
H683        H  0.81906817  0.31618907  0.53829920     0.08000
F684        F  0.76039934  0.34221227  0.67136617    -0.19400
F685        F  0.78586258  0.28864795  0.68026264    -0.15700
F686        F  0.72378228  0.29640923  0.68521715    -0.19200
F687        F  0.77219754  0.26800982  0.49978393    -0.22500
F688        F  0.71329933  0.28858894  0.50014058    -0.24000
F689        F  0.72458481  0.23084401  0.51038614    -0.18000
F690        F  0.87623911  0.33767769  0.51663562    -0.20500
F691        F  0.87436200  0.39785189  0.52019547    -0.21600
F692        F  0.86344979  0.36765748  0.46852144    -0.18800
F693        F  0.68291197  0.40035464  0.53677258    -0.18900
F694        F  0.70218353  0.37408744  0.58532313    -0.22800
F695        F  0.68121059  0.34032519  0.53886125    -0.24400
C696        C  0.82731007  0.70703677  0.31879733    -0.11200
C697        C  0.81524985  0.67126411  0.31853571     0.11400
C698        C  0.78548383  0.65935958  0.29646630    -0.03000
C699        C  0.76898079  0.68411536  0.27461578    -0.05700
C700        C  0.78144771  0.71984513  0.27424319    -0.16500
C701        C  0.81075392  0.73195264  0.29712752     0.02400
C702        C  0.83218009  0.64748255  0.34388295     0.12400
C703        C  0.77120639  0.62075931  0.29606940     0.63000
H704        H  0.74603328  0.67574259  0.25762329     0.12400
C705        C  0.82455949  0.77075231  0.29990909     0.55100
H706        H  0.84969415  0.71540822  0.33651410     0.08200
C707        C  0.86598043  0.62913822  0.33700528    -0.05600
C708        C  0.87740517  0.60335666  0.36053008    -0.06300
C709        C  0.85621339  0.59601999  0.39035493    -0.15900
C710        C  0.82343891  0.61620144  0.39819456    -0.01500
C711        C  0.81254079  0.64229174  0.37492350    -0.09100
C712        C  0.88937338  0.63650756  0.30486632     0.65200
H713        H  0.90229912  0.58761142  0.35528627     0.10700
C714        C  0.79861846  0.60908143  0.42950276     0.63600
H715        H  0.78740029  0.65781817  0.37979922     0.08000
F716        F  0.85092167  0.77600801  0.27414498    -0.19400
F717        F  0.84105095  0.77861284  0.33228046    -0.15700
F718        F  0.79560409  0.79479334  0.29645459    -0.19200
F719        F  0.75646819  0.61341178  0.32852649    -0.22500
F720        F  0.80009369  0.59717961  0.28837893    -0.24000
F721        F  0.74352662  0.61455721  0.27111725    -0.18000
F722        F  0.81658680  0.61987890  0.46032739    -0.20500
F723        F  0.78983999  0.57286375  0.42988788    -0.21600
F724        F  0.76540429  0.62788384  0.42837542    -0.18800
F725        F  0.92038600  0.61446876  0.30239918    -0.18900
F726        F  0.90157760  0.67186235  0.30686185    -0.22800
F727        F  0.86843846  0.63072223  0.27460551    -0.24400
C728        C  0.15543168  0.18802018  0.79772617    -0.11200
C729        C  0.15799291  0.15259743  0.78449587     0.11400
C730        C  0.17729097  0.14483730  0.75289778    -0.03000
C731        C  0.19667666  0.17291659  0.73732696    -0.05700
C732        C  0.19703460  0.20867966  0.75198669    -0.16500
C733        C  0.17213826  0.21658820  0.78074425     0.02400
C734        C  0.13583141  0.12532933  0.80223896     0.12400
C735        C  0.17680787  0.10719816  0.73553798     0.63000
H736        H  0.21032726  0.16686299  0.71256961     0.12400
C737        C  0.15925268  0.25352798  0.79404886     0.55100
H738        H  0.13807625  0.19364091  0.82068414     0.08200
C739        C  0.14933715  0.10833947  0.83215258    -0.05600
C740        C  0.12556946  0.08466488  0.84912609    -0.06300
C741        C  0.08824840  0.08004115  0.83874061    -0.15900
C742        C  0.07436119  0.09798692  0.80946188    -0.01500
C743        C  0.09887200  0.11989548  0.79116004    -0.09100
C744        C  0.18771740  0.11692249  0.84730237     0.65200
H745        H  0.13526645  0.07139341  0.87216220     0.10700
C746        C  0.03378917  0.09490033  0.79813043     0.63600
H747        H  0.08894947  0.13442060  0.76896400     0.08000
F748        F  0.17332017  0.26070870  0.82745317    -0.19400
F749        F  0.12067311  0.25382180  0.79596481    -0.15700
F750        F  0.16917170  0.28059113  0.77261877    -0.19200
F751        F  0.14057207  0.09722736  0.72720438    -0.22500
F752        F  0.19144319  0.08288372  0.75819765    -0.24000
F753        F  0.19753755  0.10524199  0.70483673    -0.18000
F754        F  0.01143424  0.11271466  0.82281058    -0.20500
F755        F  0.02318357  0.05908446  0.79494144    -0.21600
F756        F  0.02781575  0.11003269  0.76602996    -0.18800
F757        F  0.19561371  0.09661154  0.87598754    -0.18900
F758        F  0.18942015  0.15286361  0.85826969    -0.22800
F759        F  0.21481704  0.11003794  0.82213303    -0.24400
C760        C  0.29703971  0.35892369  0.81388943    -0.11200
C761        C  0.33261301  0.36658568  0.80129901     0.11400
C762        C  0.34419399  0.35094476  0.76842988    -0.03000
C763        C  0.32039011  0.32614157  0.75057679    -0.05700
C764        C  0.28451883  0.31846490  0.76291809    -0.16500
C765        C  0.27173388  0.33752171  0.79394828     0.02400
C766        C  0.35708452  0.39179330  0.82222005     0.12400
C767        C  0.38146356  0.36039745  0.75210879     0.63000
H768        H  0.33019191  0.31206745  0.72691786     0.12400
C769        C  0.23126103  0.33882433  0.80505433     0.55100
H770        H  0.28854024  0.37076534  0.83913117     0.08200
C771        C  0.35037083  0.42927687  0.82574545    -0.05600
C772        C  0.37909757  0.45173384  0.83924816    -0.06300
C773        C  0.41530782  0.43863670  0.84449193    -0.15900
C774        C  0.41941439  0.40049948  0.84733212    -0.01500
C775        C  0.38969573  0.37798969  0.83637480    -0.09100
C776        C  0.31411677  0.44586968  0.81373786     0.65200
H777        H  0.37370304  0.47998508  0.84438892     0.10700
C778        C  0.45383669  0.38083132  0.85990736     0.63600
H779        H  0.39308193  0.34900141  0.83635252     0.08000
F780        F  0.22308932  0.37133334  0.82254307    -0.19400
F781        F  0.22394315  0.31157965  0.82750805    -0.15700
F782        F  0.20823702  0.33602513  0.77603756    -0.19200
F783        F  0.41025604  0.34558964  0.77069850    -0.22500
F784        F  0.38589853  0.39739805  0.75237787    -0.24000
F785        F  0.38394232  0.34740779  0.71754236    -0.18000
F786        F  0.44376796  0.35972166  0.88740914    -0.20500
F787        F  0.48248127  0.40295839  0.87163647    -0.21600
F788        F  0.46731541  0.35845791  0.83281921    -0.18800
F789        F  0.31578885  0.48313280  0.81536919    -0.18900
F790        F  0.28513174  0.43561783  0.83502988    -0.22800
F791        F  0.30657748  0.43476825  0.77927529    -0.24400
C792        C  0.82278509  0.17767492  0.14753342    -0.11200
C793        C  0.81311162  0.17223787  0.11207004     0.11400
C794        C  0.78144655  0.18977857  0.09913777    -0.03000
C795        C  0.76260133  0.21486409  0.12150454    -0.05700
C796        C  0.77412811  0.22333260  0.15654117    -0.16500
C797        C  0.80267086  0.20116954  0.17064453     0.02400
C798        C  0.83575910  0.14680867  0.08945969     0.12400
C799        C  0.76720950  0.18151362  0.06197483     0.63000
H800        H  0.73766488  0.22688495  0.11162764     0.12400
C801        C  0.81315838  0.19943280  0.20933670     0.55100
H802        H  0.84589199  0.16242373  0.15755197     0.08200
C803        C  0.86805145  0.15824511  0.07177646    -0.05600
C804        C  0.88710261  0.13330589  0.04941363    -0.06300
C805        C  0.87548588  0.09712225  0.04465633    -0.15900
C806        C  0.84424253  0.08524997  0.06423098    -0.01500
C807        C  0.82482864  0.11055044  0.08610702    -0.09100
C808        C  0.88242874  0.19665488  0.07681004     0.65200
H809        H  0.91130187  0.14222259  0.03519415     0.10700
C810        C  0.83153087  0.04616473  0.06286335     0.63600
H811        H  0.80053316  0.10233348  0.10065604     0.08000
F812        F  0.84760512  0.21557323  0.21486424    -0.19400
F813        F  0.81567140  0.16373928  0.21799809    -0.15700
F814        F  0.78766501  0.21528605  0.23218111    -0.19200
F815        F  0.75656332  0.14575510  0.05841637    -0.22500
F816        F  0.79486029  0.18798160  0.03775426    -0.24000
F817        F  0.73670763  0.20240521  0.05406066    -0.18000
F818        F  0.80429347  0.03999233  0.08767789    -0.20500
F819        F  0.86137031  0.02399006  0.06958296    -0.21600
F820        F  0.81675030  0.03699836  0.03009362    -0.18800
F821        F  0.91443175  0.20226251  0.05744219    -0.18900
F822        F  0.89076526  0.20397592  0.11188568    -0.22800
F823        F  0.85567675  0.22062675  0.06638533    -0.24400
C824        C  0.66030619  0.39010840  0.14251376    -0.11200
C825        C  0.63530880  0.37329299  0.11853290     0.11400
C826        C  0.63757572  0.33572533  0.11165735    -0.03000
C827        C  0.66360733  0.31591337  0.13054410    -0.05700
C828        C  0.68733721  0.33218998  0.15631713    -0.16500
C829        C  0.68615996  0.37030031  0.16189340     0.02400
C830        C  0.60481238  0.39521751  0.10360446     0.12400
C831        C  0.61210424  0.31664282  0.08484236     0.63000
H832        H  0.66489272  0.28698758  0.12592747     0.12400
C833        C  0.71185464  0.39056129  0.18761175     0.55100
H834        H  0.65821014  0.41901819  0.14703414     0.08200
C835        C  0.57211399  0.40266070  0.12301636    -0.05600
C836        C  0.54427930  0.42342040  0.10797942    -0.06300
C837        C  0.54702994  0.43750850  0.07400533    -0.15900
C838        C  0.58284389  0.43467513  0.05739887    -0.01500
C839        C  0.60977860  0.41124634  0.07121034    -0.09100
C840        C  0.56708322  0.38983271  0.16019326     0.65200
H841        H  0.52050385  0.43058183  0.12418323     0.10700
C842        C  0.59657683  0.45835419  0.02853771     0.63600
H843        H  0.63622513  0.40732866  0.05778554     0.08000
F844        F  0.70069580  0.38526063  0.22168831    -0.19400
F845        F  0.71147413  0.42726546  0.18279995    -0.15700
F846        F  0.74803627  0.37895638  0.18296636    -0.19200
F847        F  0.61613257  0.33182197  0.05255475    -0.22500
F848        F  0.57538423  0.31988814  0.09550893    -0.24000
F849        F  0.62026611  0.28033475  0.08057652    -0.18000
F850        F  0.63304347  0.46898366  0.03530207    -0.20500
F851        F  0.57630593  0.48958998  0.02637637    -0.21600
F852        F  0.59591246  0.43906505  0.99664914    -0.18800
F853        F  0.53249824  0.39894278  0.17401246    -0.18900
F854        F  0.59392206  0.40545132  0.18211663    -0.22800
F855        F  0.57038543  0.35281709  0.16032956    -0.24400
C856        C  0.83087489  0.36829403  0.26896549    -0.11200
C857        C  0.81665281  0.36981710  0.30328209     0.11400
C858        C  0.78359526  0.35017836  0.31039920    -0.03000
C859        C  0.76571210  0.33032434  0.28262600    -0.05700
C860        C  0.77988515  0.32875878  0.24818275    -0.16500
C861        C  0.81320351  0.34834125  0.24116028     0.02400
C862        C  0.83395555  0.39565274  0.33014178     0.12400
C863        C  0.76777045  0.34927411  0.34743659     0.63000
H864        H  0.74073133  0.31501801  0.28784307     0.12400
C865        C  0.83156454  0.34938023  0.20519035     0.55100
H866        H  0.85568612  0.38386255  0.26362682     0.08200
C867        C  0.86723220  0.38890968  0.34875338    -0.05600
C868        C  0.87849798  0.41336368  0.37651254    -0.06300
C869        C  0.85739375  0.44413232  0.38675302    -0.15900
C870        C  0.82369468  0.45053520  0.36708199    -0.01500
C871        C  0.81485091  0.42755176  0.33788502    -0.09100
C872        C  0.89054542  0.35590070  0.33939746     0.65200
H873        H  0.90277869  0.40704192  0.39176404     0.10700
C874        C  0.79359650  0.47898513  0.37503744     0.63600
H875        H  0.79020784  0.43293130  0.32240204     0.08000
F876        F  0.86159356  0.32614235  0.20405430    -0.19400
F877        F  0.84441016  0.38382554  0.19960052    -0.15700
F878        F  0.80768009  0.34000781  0.17782332    -0.19200
F879        F  0.75631265  0.38319658  0.35900124    -0.22500
F880        F  0.79475527  0.33730691  0.37004937    -0.24000
F881        F  0.73729684  0.32640015  0.34901027    -0.18000
F882        F  0.75885075  0.46255322  0.37418305    -0.20500
F883        F  0.79445017  0.50396579  0.34918664    -0.21600
F884        F  0.79598054  0.49709390  0.40722106    -0.18800
F885        F  0.92070528  0.35299055  0.36180827    -0.18900
F886        F  0.90409872  0.35800982  0.30555651    -0.22800
F887        F  0.86903372  0.32511408  0.34137628    -0.24400
C888        C  0.56913769  0.08220434  0.54611398    -0.11200
C889        C  0.60143410  0.09943807  0.53502476     0.11400
C890        C  0.60839110  0.10108462  0.49857829    -0.03000
C891        C  0.58029865  0.08900582  0.47501120    -0.05700
C892        C  0.54380583  0.08187696  0.48653131    -0.16500
C893        C  0.53928377  0.07447059  0.52300929     0.02400
C894        C  0.62449828  0.11894661  0.56228207     0.12400
C895        C  0.64417421  0.11709491  0.48453454     0.63000
H896        H  0.58664770  0.08614202  0.44741029     0.12400
C897        C  0.50449200  0.05995761  0.54066821     0.55100
H898        H  0.56566278  0.07821745  0.57399830     0.08200
C899        C  0.61053775  0.14976426  0.58120091    -0.05600
C900        C  0.63251813  0.16601849  0.60798840    -0.06300
C901        C  0.66906244  0.15471318  0.61456029    -0.15900
C902        C  0.68410528  0.12544683  0.59369053    -0.01500
C903        C  0.66060852  0.10688266  0.56925691    -0.09100
C904        C  0.57289989  0.16614520  0.57278518     0.65200
H905        H  0.62115833  0.18820365  0.62394605     0.10700
C906        C  0.72498794  0.11479702  0.59495805     0.63600
H907        H  0.67056463  0.08296996  0.55500390     0.08000
F908        F  0.49397101  0.08358830  0.56798100    -0.19400
F909        F  0.51300846  0.02724175  0.55457045    -0.15700
F910        F  0.47408931  0.05473486  0.51901999    -0.19200
F911        F  0.67410568  0.09557030  0.49232876    -0.22500
F912        F  0.64982301  0.15129787  0.49950167    -0.24000
F913        F  0.64295672  0.11987476  0.44838624    -0.18000
F914        F  0.73172060  0.09462678  0.62385422    -0.20500
F915        F  0.74751195  0.14514126  0.59627696    -0.21600
F916        F  0.73507382  0.09410626  0.56532616    -0.18800
F917        F  0.56829549  0.19963067  0.58963673    -0.18900
F918        F  0.54441036  0.14412039  0.58355694    -0.22800
F919        F  0.56989278  0.17054102  0.53698538    -0.24400
C920        C  0.32342657  0.19671779  0.61455812    -0.11200
C921        C  0.35527737  0.21796751  0.61133752     0.11400
C922        C  0.35979980  0.24905715  0.63370022    -0.03000
C923        C  0.33264453  0.25678438  0.65984578    -0.05700
C924        C  0.30133838  0.23444940  0.66468908    -0.16500
C925        C  0.29639089  0.20375928  0.64072746     0.02400
C926        C  0.38376742  0.20518006  0.58512435     0.12400
C927        C  0.39315716  0.27382978  0.62985259     0.63000
H928        H  0.33616278  0.28047420  0.67703891     0.12400
C929        C  0.26405925  0.17700823  0.64179184     0.55100
H930        H  0.32067231  0.17324720  0.59676012     0.08200
C931        C  0.40648797  0.17498956  0.59134008    -0.05600
C932        C  0.42804639  0.16004617  0.56356482    -0.06300
C933        C  0.42824384  0.17449097  0.53011134    -0.15900
C934        C  0.40853367  0.20683073  0.52498923    -0.01500
C935        C  0.38536584  0.22083191  0.55221610    -0.09100
C936        C  0.40713401  0.15781122  0.62684632     0.65200
H937        H  0.44339007  0.13549997  0.56720413     0.10700
C938        C  0.41171748  0.22779097  0.49186661     0.63600
H939        H  0.36816931  0.24408417  0.54763819     0.08000
F940        F  0.27126980  0.15190007  0.66658573    -0.19400
F941        F  0.25936374  0.15841326  0.60970369    -0.15700
F942        F  0.23073521  0.19394956  0.64926112    -0.19200
F943        F  0.39184770  0.28922447  0.59749016    -0.22500
F944        F  0.42589347  0.25457621  0.63232640    -0.24000
F945        F  0.39374939  0.30131118  0.65561989    -0.18000
F946        F  0.37868210  0.22489714  0.47319079    -0.20500
F947        F  0.44074927  0.21600106  0.47044884    -0.21600
F948        F  0.41831682  0.26372839  0.50093619    -0.18800
F949        F  0.43419498  0.13143400  0.62820863    -0.18900
F950        F  0.37306119  0.14199228  0.63339485    -0.22800
F951        F  0.41473524  0.18368003  0.65313887    -0.24400
C952        C  0.59946199  0.16562621  0.31245450    -0.11200
C953        C  0.59910851  0.20329337  0.31697410     0.11400
C954        C  0.57287533  0.21986179  0.34042882    -0.03000
C955        C  0.55005388  0.19779232  0.36088921    -0.05700
C956        C  0.55172877  0.16011175  0.35728816    -0.16500
C957        C  0.57592618  0.14374315  0.33204872     0.02400
C958        C  0.62550119  0.22407830  0.29514999     0.12400
C959        C  0.56847552  0.26046485  0.34315827     0.63000
H960        H  0.53073772  0.20964686  0.37993854     0.12400
C961        C  0.57640533  0.10317744  0.32587858     0.55100
H962        H  0.61867265  0.15345687  0.29345730     0.08200
C963        C  0.66351830  0.22933693  0.30459424    -0.05600
C964        C  0.68791637  0.24508995  0.28049054    -0.06300
C965        C  0.67579687  0.25471598  0.24714773    -0.15900
C966        C  0.63782889  0.24948110  0.23777703    -0.01500
C967        C  0.61323394  0.23452635  0.26214012    -0.09100
C968        C  0.67857406  0.21710878  0.33939879     0.65200
H969        H  0.71721300  0.24849990  0.28682983     0.10700
C970        C  0.62356806  0.25894809  0.20189796     0.63600
H971        H  0.58432909  0.22956297  0.25511405     0.08000
F972        F  0.58835800  0.08711598  0.35591937    -0.19400
F973        F  0.59998742  0.09260974  0.29855819    -0.15700
F974        F  0.54087340  0.09098779  0.31744382    -0.19200
F975        F  0.55750914  0.27261976  0.31096025    -0.22500
F976        F  0.60188303  0.27670548  0.35280459    -0.24000
F977        F  0.54183136  0.27100552  0.36782069    -0.18000
F978        F  0.58605885  0.25086896  0.19765994    -0.20500
F979        F  0.64308488  0.23989758  0.17588238    -0.21600
F980        F  0.62822429  0.29541642  0.19792320    -0.18800
F981        F  0.71611897  0.22512760  0.34348249    -0.18900
F982        F  0.67427379  0.18027229  0.34118886    -0.22800
F983        F  0.65951959  0.23400310  0.36698879    -0.24400
C984        C  0.14580132  0.85377852  0.81581659    -0.11200
C985        C  0.12775422  0.83803851  0.78632501     0.11400
C986        C  0.08868116  0.84167660  0.78256701    -0.03000
C987        C  0.06898632  0.86234396  0.80825580    -0.05700
C988        C  0.08725252  0.87957226  0.83702298    -0.16500
C989        C  0.12631734  0.87482725  0.84131339     0.02400
C990        C  0.15073518  0.81848149  0.75933273     0.12400
C991        C  0.06799950  0.82370175  0.75159602     0.63000
H992        H  0.03912551  0.86574897  0.80575071     0.12400
C993        C  0.14755139  0.89134720  0.87269075     0.55100
H994        H  0.17563612  0.85008795  0.81817767     0.08200
C995        C  0.16802893  0.83644297  0.73189588    -0.05600
C996        C  0.18714644  0.81597094  0.70577856    -0.06300
C997        C  0.19210729  0.77824372  0.70719316    -0.15900
C998        C  0.17403373  0.76037200  0.73534805    -0.01500
C999        C  0.15468745  0.78127897  0.76117993    -0.09100
C1000       C  0.16703166  0.87732653  0.73073846     0.65200
H1001       H  0.19730424  0.83008606  0.68374730     0.10700
C1002       C  0.17464085  0.71996693  0.74118655     0.63600
H1003       H  0.14175644  0.76834139  0.78308341     0.08000
F1004       F  0.14955562  0.92829942  0.87023813    -0.19400
F1005       F  0.18367056  0.87846899  0.87426172    -0.15700
F1006       F  0.12981680  0.88318256  0.90363689    -0.19200
F1007       F  0.07155113  0.78674992  0.75255460    -0.22500
F1008       F  0.08254678  0.83488764  0.72026832    -0.24000
F1009       F  0.03037164  0.83191200  0.75219591    -0.18000
F1010       F  0.20112813  0.71316331  0.76642979    -0.20500
F1011       F  0.18197832  0.69874711  0.71144171    -0.21600
F1012       F  0.14021610  0.70893683  0.75332399    -0.18800
F1013       F  0.18483515  0.88958837  0.70128369    -0.18900
F1014       F  0.18483889  0.89241745  0.76011132    -0.22800
F1015       F  0.13063092  0.88936147  0.73033220    -0.24400
C1016       C  0.36212460  0.61627329  0.76421260    -0.11200
C1017       C  0.36719021  0.61509043  0.72763438     0.11400
C1018       C  0.39653839  0.59399357  0.71264820    -0.03000
C1019       C  0.41780677  0.57225792  0.73468924    -0.05700
C1020       C  0.41128067  0.57217380  0.77104302    -0.16500
C1021       C  0.38387054  0.59532471  0.78624429     0.02400
C1022       C  0.34206826  0.63774919  0.70645883     0.12400
C1023       C  0.40560287  0.59497270  0.67378020     0.63000
H1024       H  0.43957898  0.55500709  0.72381757     0.12400
C1025       C  0.37837132  0.59837608  0.82579042     0.55100
H1026       H  0.34063353  0.63371949  0.77536714     0.08200
C1027       C  0.30492640  0.62730241  0.69796758    -0.05600
C1028       C  0.28125689  0.65213982  0.68208010    -0.06300
C1029       C  0.29296630  0.68732631  0.67568306    -0.15900
C1030       C  0.33032110  0.69766191  0.68415001    -0.01500
C1031       C  0.35427495  0.67232367  0.69868688    -0.09100
C1032       C  0.28998476  0.59048044  0.70668632     0.65200
H1033       H  0.25253477  0.64492144  0.67633905     0.10700
C1034       C  0.34665321  0.73492670  0.67982016     0.63600
H1035       H  0.38247503  0.68033383  0.70590255     0.08000
F1036       F  0.36586224  0.56597222  0.83785236    -0.19400
F1037       F  0.35252044  0.62455700  0.83547870    -0.15700
F1038       F  0.41186348  0.60746101  0.84198406    -0.19200
F1039       F  0.41676338  0.62933707  0.66594577    -0.22500
F1040       F  0.37450939  0.58552092  0.65391610    -0.24000
F1041       F  0.43411974  0.57149608  0.66427306    -0.18000
F1042       F  0.36091800  0.74798616  0.71171604    -0.20500
F1043       F  0.32113702  0.75953663  0.66874995    -0.21600
F1044       F  0.37536749  0.73257406  0.65556263    -0.18800
F1045       F  0.25358863  0.58537989  0.69527623    -0.18900
F1046       F  0.29058066  0.58678259  0.74265760    -0.22800
F1047       F  0.31173191  0.56388969  0.69064942    -0.24400
C1048       C  0.39477059  0.85027674  0.55429498    -0.11200
C1049       C  0.36248397  0.83553389  0.53848082     0.11400
C1050       C  0.35596219  0.84074879  0.50236618    -0.03000
C1051       C  0.38425810  0.85677562  0.48274022    -0.05700
C1052       C  0.41999974  0.86358817  0.49690898    -0.16500
C1053       C  0.42299721  0.86600582  0.53423676     0.02400
C1054       C  0.33537799  0.81609746  0.56047058     0.12400
C1055       C  0.32022531  0.82789400  0.48417970     0.63000
H1056       H  0.37962844  0.86136635  0.45521482     0.12400
C1057       C  0.45187685  0.88866115  0.55436111     0.55100
H1058       H  0.39769787  0.84996320  0.58264348     0.08200
C1059       C  0.34116183  0.78013807  0.56989845    -0.05600
C1060       C  0.31383543  0.76324159  0.59014265    -0.06300
C1061       C  0.28045884  0.78064648  0.60027995    -0.15900
C1062       C  0.27373815  0.81587514  0.58814221    -0.01500
C1063       C  0.30240174  0.83357864  0.57054380    -0.09100
C1064       C  0.37634435  0.75992821  0.55904102     0.65200
H1065       H  0.31922976  0.73662946  0.59924836     0.10700
C1066       C  0.23686537  0.83587983  0.59105808     0.63600
H1067       H  0.29826372  0.86108094  0.56302896     0.08000
F1068       F  0.47245330  0.86735278  0.57598646    -0.19400
F1069       F  0.43361538  0.91440198  0.57527446    -0.15700
F1070       F  0.47569237  0.90669122  0.53268114    -0.19200
F1071       F  0.29021619  0.84729310  0.49749227    -0.22500
F1072       F  0.31454895  0.79171885  0.48949217    -0.24000
F1073       F  0.32150885  0.83221594  0.44824667    -0.18000
F1074       F  0.24020816  0.86425365  0.61566086    -0.20500
F1075       F  0.20736068  0.81431193  0.60005500    -0.21600
F1076       F  0.22808972  0.84958373  0.55885949    -0.18800
F1077       F  0.37505802  0.72434160  0.56828137    -0.18900
F1078       F  0.40693803  0.77610838  0.57534337    -0.22800
F1079       F  0.38087543  0.76028809  0.52296593    -0.24400
C1080       C  0.17948858  0.33046483  0.61462447    -0.11200
C1081       C  0.17413829  0.36541494  0.62870671     0.11400
C1082       C  0.18115007  0.37369600  0.66468946    -0.03000
C1083       C  0.19639158  0.34664615  0.68503683    -0.05700
C1084       C  0.20305622  0.31183872  0.67050620    -0.16500
C1085       C  0.19405274  0.30341727  0.63489884     0.02400
C1086       C  0.16297538  0.39246834  0.60370965     0.12400
C1087       C  0.17137624  0.41028556  0.68147900     0.63000
H1088       H  0.20297447  0.35236812  0.71244539     0.12400
C1089       C  0.20097035  0.26648941  0.61797560     0.55100
H1090       H  0.17324745  0.32496132  0.58703469     0.08200
C1091       C  0.18981753  0.40798420  0.58158460    -0.05600
C1092       C  0.17721812  0.42678185  0.55284432    -0.06300
C1093       C  0.13920745  0.42979928  0.54563480    -0.15900
C1094       C  0.11237405  0.41610086  0.56855536    -0.01500
C1095       C  0.12475632  0.39721845  0.59748485    -0.09100
C1096       C  0.23149242  0.40322961  0.58722498     0.65200
H1097       H  0.19684205  0.43823453  0.53479404     0.10700
C1098       C  0.07115090  0.42129388  0.56181690     0.63600
H1099       H  0.10482281  0.38471742  0.61454234     0.08000
F1100       F  0.19046788  0.26425540  0.58292631    -0.19400
F1101       F  0.18064878  0.24116512  0.63536381    -0.15700
F1102       F  0.23854598  0.25888776  0.61966884    -0.19200
F1103       F  0.13325088  0.41528819  0.67959149    -0.22500
F1104       F  0.18898077  0.43745969  0.66417116    -0.24000
F1105       F  0.18186501  0.41317533  0.71651544    -0.18000
F1106       F  0.04937266  0.40557731  0.58698273    -0.20500
F1107       F  0.06165121  0.40599238  0.52922138    -0.21600
F1108       F  0.06321750  0.45770163  0.56244401    -0.18800
F1109       F  0.25232795  0.42270901  0.56401372    -0.18900
F1110       F  0.24091425  0.36735075  0.58227029    -0.22800
F1111       F  0.24130079  0.41491883  0.62094507    -0.24400
C1112       C  0.19154236  0.59621823  0.21929218    -0.11200
C1113       C  0.16578596  0.60938139  0.24433753     0.11400
C1114       C  0.15312592  0.64526242  0.24324308    -0.03000
C1115       C  0.16795343  0.66729659  0.21768366    -0.05700
C1116       C  0.19583440  0.65514072  0.19394413    -0.16500
C1117       C  0.20619557  0.61820528  0.19342477     0.02400
C1118       C  0.15659762  0.58707426  0.27446159     0.12400
C1119       C  0.12600961  0.66102888  0.27053065     0.63000
H1120       H  0.16009511  0.69538926  0.21828761     0.12400
C1121       C  0.23227445  0.60042174  0.16664094     0.55100
H1122       H  0.20094212  0.56859661  0.22046667     0.08200
C1123       C  0.12596858  0.56297919  0.27438722    -0.05600
C1124       C  0.11678633  0.54657208  0.30594931    -0.06300
C1125       C  0.13799202  0.55283346  0.33672903    -0.15900
C1126       C  0.17038110  0.57473665  0.33571189    -0.01500
C1127       C  0.17889710  0.59175423  0.30453604    -0.09100
C1128       C  0.10418699  0.55372892  0.24092996     0.65200
H1129       H  0.09312057  0.52847044  0.30691781     0.10700
C1130       C  0.19633315  0.57982000  0.36705941     0.63600
H1131       H  0.20268681  0.60977387  0.30360526     0.08000
F1132       F  0.21646307  0.56860805  0.15336671    -0.19400
F1133       F  0.26568157  0.59263161  0.18273887    -0.15700
F1134       F  0.23912351  0.62153983  0.13853570    -0.19200
F1135       F  0.14209484  0.66128262  0.30355208    -0.22500
F1136       F  0.09368514  0.64072100  0.27074063    -0.24000
F1137       F  0.11623353  0.69604111  0.26377858    -0.18000
F1138       F  0.23023865  0.59443656  0.35756268    -0.20500
F1139       F  0.20342876  0.54704167  0.38146461    -0.21600
F1140       F  0.18031462  0.60293456  0.39211800    -0.18800
F1141       F  0.07491134  0.53037716  0.24685844    -0.18900
F1142       F  0.12768124  0.53734061  0.21631713    -0.22800
F1143       F  0.08964320  0.58444954  0.22718335    -0.24400
C1144       C  0.15096725  0.67466474  0.55058717    -0.11200
C1145       C  0.14679513  0.63892902  0.56038611     0.11400
C1146       C  0.16356463  0.62829209  0.59214210    -0.03000
C1147       C  0.18331695  0.65413025  0.61324816    -0.05700
C1148       C  0.18779415  0.68969688  0.60319865    -0.16500
C1149       C  0.17118693  0.70030696  0.57150246     0.02400
C1150       C  0.13228593  0.61184554  0.53344617     0.12400
C1151       C  0.16144070  0.58957966  0.60331035     0.63000
H1152       H  0.19593303  0.64665057  0.63770993     0.12400
C1153       C  0.17514388  0.73849454  0.55973664     0.55100
H1154       H  0.13923109  0.68198954  0.52568676     0.08200
C1155       C  0.09416527  0.60358749  0.52745499    -0.05600
C1156       C  0.08446523  0.57577710  0.50213600    -0.06300
C1157       C  0.11166513  0.55551251  0.48321385    -0.15900
C1158       C  0.15041502  0.56557874  0.48912175    -0.01500
C1159       C  0.15902299  0.59408543  0.51305176    -0.09100
C1160       C  0.06416346  0.62406922  0.54789692     0.65200
H1161       H  0.05547657  0.56917438  0.49798093     0.10700
C1162       C  0.18579385  0.54724778  0.47458533     0.63600
H1163       H  0.18803992  0.60155860  0.51752854     0.08000
F1164       F  0.15818230  0.74302503  0.52755370    -0.19400
F1165       F  0.21249419  0.74707819  0.55651754    -0.15700
F1166       F  0.15865377  0.76189305  0.58426432    -0.19200
F1167       F  0.18019931  0.56715390  0.57943426    -0.22500
F1168       F  0.12465849  0.57861540  0.60495349    -0.24000
F1169       F  0.17732661  0.58566722  0.63608493    -0.18000
F1170       F  0.18084941  0.51912961  0.45065311    -0.20500
F1171       F  0.20762971  0.57249279  0.45850906    -0.21600
F1172       F  0.20578656  0.53418190  0.50239581    -0.18800
F1173       F  0.02879743  0.61165707  0.53901637    -0.18900
F1174       F  0.06621484  0.66017666  0.54084616    -0.22800
F1175       F  0.06915149  0.62038300  0.58356285    -0.24400
C1176       C  0.14318876  0.17572038  0.13868444    -0.11200
C1177       C  0.13840515  0.13902725  0.14361551     0.11400
C1178       C  0.15382696  0.12390373  0.17373832    -0.03000
C1179       C  0.17428613  0.14634314  0.19769131    -0.05700
C1180       C  0.18075042  0.18328372  0.19231918    -0.16500
C1181       C  0.16197273  0.19871938  0.16319570     0.02400
C1182       C  0.11813417  0.11733858  0.11574041     0.12400
C1183       C  0.14920254  0.08408123  0.18026723     0.63000
H1184       H  0.18482412  0.13466045  0.22108950     0.12400
C1185       C  0.16121076  0.23857498  0.15502033     0.55100
H1186       H  0.13142250  0.18669417  0.11518296     0.08200
C1187       C  0.07893200  0.11905348  0.11152582    -0.05600
C1188       C  0.06238099  0.10094974  0.08206999    -0.06300
C1189       C  0.08352711  0.08040672  0.05743680    -0.15900
C1190       C  0.12280014  0.07762898  0.06261599    -0.01500
C1191       C  0.13932173  0.09695665  0.09130256    -0.09100
C1192       C  0.05470024  0.13988054  0.13804685     0.65200
H1193       H  0.03254265  0.10263026  0.07812543     0.10700
C1194       C  0.14770964  0.05505811  0.03802648     0.63600
H1195       H  0.16927100  0.09655448  0.09491709     0.08000
F1196       F  0.12640874  0.24745994  0.14226131    -0.19400
F1197       F  0.18730795  0.24505747  0.12930135    -0.15700
F1198       F  0.16772839  0.26151243  0.18381900    -0.19200
F1199       F  0.16738591  0.06372465  0.15432417    -0.22500
F1200       F  0.11182593  0.07486311  0.17997367    -0.24000
F1201       F  0.16389585  0.07529818  0.21241180    -0.18000
F1202       F  0.18510114  0.05906654  0.04653352    -0.20500
F1203       F  0.14318447  0.06525375  0.00378149    -0.21600
F1204       F  0.13879987  0.01900490  0.04030913    -0.18800
F1205       F  0.01709056  0.13470483  0.13118563    -0.18900
F1206       F  0.06225555  0.17629380  0.13709128    -0.22800
F1207       F  0.06172665  0.12863835  0.17153426    -0.24400
C1208       C  0.33275096  0.28832353  0.16227413    -0.11200
C1209       C  0.32931282  0.32538480  0.16953085     0.11400
C1210       C  0.30280323  0.33806893  0.19472498    -0.03000
C1211       C  0.28102825  0.31276886  0.21245553    -0.05700
C1212       C  0.28423134  0.27553743  0.20490338    -0.16500
C1213       C  0.31135641  0.26302027  0.17987266     0.02400
C1214       C  0.35403004  0.34986678  0.14990132     0.12400
C1215       C  0.29616392  0.37811631  0.20130726     0.63000
H1216       H  0.25994652  0.32198037  0.23108955     0.12400
C1217       C  0.31986842  0.22359190  0.17081680     0.55100
H1218       H  0.35301105  0.27897097  0.14279929     0.08200
C1219       C  0.39102163  0.35777470  0.16097276    -0.05600
C1220       C  0.41326890  0.38008600  0.14049703    -0.06300
C1221       C  0.40042812  0.39348440  0.10873950    -0.15900
C1222       C  0.36427914  0.38343992  0.09650068    -0.01500
C1223       C  0.34129817  0.36266324  0.11789348    -0.09100
C1224       C  0.40705123  0.34247088  0.19411113     0.65200
H1225       H  0.44100071  0.38774917  0.14937479     0.10700
C1226       C  0.34956833  0.39307306  0.06077419     0.63600
H1227       H  0.31337364  0.35541262  0.10911087     0.08000
F1228       F  0.35792043  0.21810557  0.17324244    -0.19400
F1229       F  0.30866845  0.21518724  0.13663540    -0.15700
F1230       F  0.30289564  0.19998389  0.19281501    -0.19200
F1231       F  0.28225257  0.39240276  0.17107406    -0.22500
F1232       F  0.32909718  0.39557057  0.21040661    -0.24000
F1233       F  0.27080630  0.38486895  0.22820309    -0.18000
F1234       F  0.32831680  0.36500396  0.04620438    -0.20500
F1235       F  0.37815678  0.39946992  0.03745176    -0.21600
F1236       F  0.32738144  0.42332770  0.06452624    -0.18800
F1237       F  0.44329787  0.35406208  0.20035043    -0.18900
F1238       F  0.40731238  0.30529502  0.19080671    -0.22800
F1239       F  0.38574736  0.35302599  0.22297061    -0.24400
C1240       C  0.34004257  0.17969374  0.32257781    -0.11200
C1241       C  0.32833440  0.14623613  0.33413127     0.11400
C1242       C  0.29191307  0.13403133  0.32544394    -0.03000
C1243       C  0.26897387  0.15561652  0.30485534    -0.05700
C1244       C  0.28142106  0.18810366  0.29067243    -0.16500
C1245       C  0.31810367  0.20048276  0.30023546     0.02400
C1246       C  0.35568223  0.12473786  0.35444420     0.12400
C1247       C  0.27744547  0.09792540  0.33695200     0.63000
H1248       H  0.24074433  0.14671102  0.29927480     0.12400
C1249       C  0.33571226  0.23449410  0.28697836     0.55100
H1250       H  0.36747012  0.18909176  0.33076743     0.08200
C1251       C  0.38800219  0.10930422  0.33851675    -0.05600
C1252       C  0.41574845  0.09499016  0.36015228    -0.06300
C1253       C  0.41230291  0.09546134  0.39704225    -0.15900
C1254       C  0.37595761  0.10222866  0.41109244    -0.01500
C1255       C  0.34970484  0.11988154  0.39036594    -0.09100
C1256       C  0.39342514  0.10822089  0.29890757     0.65200
H1257       H  0.44111870  0.08450318  0.34831313     0.10700
C1258       C  0.36158529  0.08796431  0.44540708     0.63600
H1259       H  0.32401600  0.12944780  0.40240458     0.08000
F1260       F  0.37396648  0.23522035  0.29210620    -0.19400
F1261       F  0.32113463  0.26435564  0.30488207    -0.15700
F1262       F  0.32988990  0.23648075  0.25143373    -0.19200
F1263       F  0.27238596  0.09905755  0.37294935    -0.22500
F1264       F  0.30256640  0.07102383  0.32763974    -0.24000
F1265       F  0.24356987  0.08893288  0.32137105    -0.18000
F1266       F  0.34766250  0.11577222  0.46687675    -0.20500
F1267       F  0.38824032  0.06975890  0.46369504    -0.21600
F1268       F  0.33273038  0.06406828  0.43775213    -0.18800
F1269       F  0.42337910  0.08683909  0.28862568    -0.18900
F1270       F  0.39995234  0.14250404  0.28770066    -0.22800
F1271       F  0.36188721  0.09417986  0.28236032    -0.24400
C1272       C  0.16266430  0.38450477  0.36960547    -0.11200
C1273       C  0.13572004  0.36299638  0.35294103     0.11400
C1274       C  0.09773555  0.36904661  0.36102643    -0.03000
C1275       C  0.08791166  0.39904265  0.38351003    -0.05700
C1276       C  0.11490193  0.42225265  0.39945583    -0.16500
C1277       C  0.15391988  0.41373611  0.39279266     0.02400
C1278       C  0.14983803  0.33355417  0.32844703     0.12400
C1279       C  0.06797480  0.34352951  0.34623846     0.63000
H1280       H  0.05898379  0.40449098  0.38816291     0.12400
C1281       C  0.18784972  0.43383174  0.40915041     0.55100
H1282       H  0.19140600  0.37768787  0.36380387     0.08200
C1283       C  0.16325187  0.34069273  0.29431690    -0.05600
C1284       C  0.18225016  0.31330209  0.27482563    -0.06300
C1285       C  0.18891480  0.27957883  0.28855943    -0.15900
C1286       C  0.17568523  0.27238470  0.32257532    -0.01500
C1287       C  0.15654916  0.29969585  0.34211590    -0.09100
C1288       C  0.15774673  0.37716264  0.27858195     0.65200
H1289       H  0.19202055  0.31791502  0.24848212     0.10700
C1290       C  0.18234090  0.23616352  0.33822258     0.63600
H1291       H  0.14751776  0.29519886  0.36871422     0.08000
F1292       F  0.18750058  0.46969899  0.40203111    -0.19400
F1293       F  0.22138908  0.42069781  0.39596685    -0.15700
F1294       F  0.18949119  0.42993998  0.44493317    -0.19200
F1295       F  0.07455103  0.30922069  0.35735846    -0.22500
F1296       F  0.06870513  0.34276647  0.30990640    -0.24000
F1297       F  0.03262217  0.35368656  0.35727718    -0.18000
F1298       F  0.16755425  0.23470531  0.37173508    -0.20500
F1299       F  0.22024467  0.22989096  0.34023321    -0.21600
F1300       F  0.16587057  0.20917196  0.31730574    -0.18800
F1301       F  0.17172421  0.37783139  0.24469682    -0.18900
F1302       F  0.17588994  0.40368760  0.29873117    -0.22800
F1303       F  0.12016551  0.38508408  0.27737485    -0.24400
loop_ 
_geom_bond_atom_site_label_1 
_geom_bond_atom_site_label_2 
_geom_bond_distance 
_geom_bond_site_symmetry_2 
_ccdc_geom_bond_type 
C1            C2   1.554       .  S
C1            C7   1.532       .  S
C1            C5   1.529       .  S
C1         C1180   1.549       .  S
C2            H9   1.082       .  S
C2            C3   1.381       .  D
C3            C4   1.557       .  S
C3         C1244   1.527       .  S
C4            C8   1.552       .  S
C4            C6   1.547       .  S
C4           H10   1.100       .  S
C5           H11   1.087       .  S
C5            C6   1.358       .  D
C6         C1285   1.488       .  S
C7           H12   1.084       .  S
C7            C8   1.361       .  D
C8         C1212   1.494       .  S
C13          C15   1.530       .  S
C13          C17   1.526       .  S
C13          C16   1.577       .  S
C13        C1276   1.560       .  S
C14          C18   1.525       .  S
C14          C20   1.520       .  S
C14          C19   1.576       .  S
C14        C1157   1.553       .  S
C15          C23   1.380       .  A
C15          C18   1.382       .  A
C16          C27   1.390       .  A
C16          C19   1.433       .  A
C17          C31   1.384       .  A
C17          C20   1.387       .  A
C18          C21   1.378       .  A
C19          C25   1.390       .  A
C20          C28   1.375       .  A
C21          N22   1.358       .  A
C21          H34   1.082       .  S
N22          C23   1.356       .  A
N22        C1125   1.439       .  S
C23          H24   1.082       .  S
C25          N26   1.364       .  A
C25          H35   1.080       .  S
N26          C27   1.362       .  A
N26         N108   1.423   1_455  S
C27          H33   1.077       .  S
C28          N29   1.343       .  A
C28          H30   1.083       .  S
N29          C31   1.352       .  A
N29        C1093   1.424       .  S
C31          H32   1.082       .  S
C36          C37   1.549       .  S
C36          C42   1.535       .  S
C36          C40   1.538       .  S
C36         C997   1.547       .  S
C37          H44   1.080       .  S
C37          C38   1.369       .  D
C38          C39   1.551       .  S
C38        C1061   1.504       .  S
C39          C43   1.553       .  S
C39          C41   1.544       .  S
C39          H45   1.109       .  S
C40          H46   1.087       .  S
C40          C41   1.360       .  D
C41        C1148   1.493       .  S
C42          H47   1.086       .  S
C42          C43   1.364       .  D
C43        C1029   1.492       .  S
C48          C50   1.550       .  S
C48          C52   1.560       .  S
C48          C51   1.551       .  S
C48        C1253   1.551       .  S
C49          C53   1.532       .  S
C49          C55   1.557       .  S
C49          C54   1.534       .  S
C49         C892   1.544       .  S
C50          C58   1.385       .  A
C50          C53   1.389       .  A
C51          C62   1.393       .  A
C51          C54   1.394       .  A
C52          C66   1.392       .  A
C52          C55   1.410       .  A
C53          C56   1.377       .  A
C54          C60   1.380       .  A
C55          C63   1.389       .  A
C56          N57   1.355       .  A
C56          H69   1.080       .  S
N57          C58   1.360       .  A
N57         C933   1.445       .  S
C58          H59   1.080       .  S
C60          N61   1.355   1_545  A
C60          H70   1.083       .  S
N61          C62   1.364   1_565  A
N61         N155   1.413       .  S
C62          H68   1.082       .  S
C63          N64   1.351       .  A
C63          H65   1.080       .  S
N64          C66   1.354       .  A
N64         C956   1.441       .  S
C66          H67   1.081       .  S
C71          C72   1.540       .  S
C71          C77   1.550       .  S
C71          C75   1.533       .  S
C71         C796   1.552       .  S
C72          H79   1.084       .  S
C72          C73   1.370       .  D
C73          C74   1.556       .  S
C73         C860   1.503       .  S
C74          C78   1.551       .  S
C74          C76   1.545       .  S
C74          H80   1.105       .  S
C75          H81   1.087       .  S
C75          C76   1.361       .  D
C76         C965   1.493       .  S
C77          H82   1.083       .  S
C77          C78   1.369       .  D
C78         C828   1.508       .  S
C83          C84   1.538       .  S
C83          C89   1.537       .  S
C83          C87   1.547       .  S
C83         C732   1.546       .  S
C84          H91   1.086       .  S
C84          C85   1.361       .  D
C85          C86   1.530       .  S
C85        C1084   1.478       .  S
C86          C90   1.557       .  S
C86          C88   1.553       .  S
C86          H92   1.110       .  S
C87          H93   1.078       .  S
C87          C88   1.363       .  D
C88         C924   1.515       .  S
C89          H94   1.083       .  S
C89          C90   1.372       .  D
C90         C764   1.502       .  S
C95          C97   1.537       .  S
C95          C99   1.529       .  S
C95          C98   1.565       .  S
C95         C636   1.562       .  S
C96         C100   1.528       .  S
C96         C102   1.518       .  S
C96         C101   1.575       .  S
C96         C869   1.551       .  S
C97         C105   1.374       .  A
C97         C100   1.386       .  A
C98         C109   1.393       .  A
C98         C101   1.445       .  A
C99         C113   1.381       .  A
C99         C102   1.379       .  A
C100        C103   1.373       .  A
C101        C107   1.394       .  A
C102        C110   1.376       .  A
C103        N104   1.356       .  A
C103        H116   1.082       .  S
N104        C105   1.354       .  A
N104        C709   1.432       .  S
C105        H106   1.080       .  S
C107        N108   1.356       .  A
C107        H117   1.081       .  S
N108        C109   1.355       .  A
C109        H115   1.077       .  S
C110        N111   1.348       .  A
C110        H112   1.083       .  S
N111        C113   1.351       .  A
N111        C677   1.428       .  S
C113        H114   1.083       .  S
C118        C119   1.550       .  S
C118        C124   1.537       .  S
C118        C122   1.528       .  S
C118        C549   1.540       .  S
C119        H126   1.080       .  S
C119        C120   1.376       .  D
C120        C121   1.549       .  S
C120        C604   1.520       .  S
C121        C125   1.538       .  S
C121        C123   1.544       .  S
C121        H127   1.099       .  S
C122        H128   1.083       .  S
C122        C123   1.358       .  D
C123        C700   1.475       .  S
C124        H129   1.085       .  S
C124        C125   1.363       .  D
C125        C572   1.496       .  S
C130        C131   1.534       .  S
C130        C136   1.549       .  S
C130        C134   1.553       .  S
C130        C476   1.551       .  S
C131        H138   1.080       .  S
C131        C132   1.362       .  D
C132        C133   1.536       .  S
C132        C901   1.493       .  S
C133        C137   1.542       .  S
C133        C135   1.523       .  S
C133        H139   1.109       .  S
C134        H140   1.081       .  S
C134        C135   1.360       .  D
C135        C668   1.476       .  S
C136        H141   1.080       .  S
C136        C137   1.378       .  D
C137        C508   1.506       .  S
C142        C144   1.551       .  S
C142        C146   1.550       .  S
C142        C145   1.545       .  S
C142       C1052   1.544       .  S
C143        C147   1.556       .  S
C143        C149   1.547       .  S
C143        C148   1.536       .  S
C143        C613   1.541       .  S
C144        C152   1.384       .  A
C144        C147   1.395       .  A
C145        C156   1.391       .  A
C145        C148   1.390       .  A
C146        C160   1.387       .  A
C146        C149   1.401       .  A
C147        C150   1.390       .  A
C148        C154   1.382       .  A
C149        C157   1.386       .  A
C150        N151   1.354       .  A
C150        H163   1.080       .  S
N151        C152   1.353       .  A
N151        C444   1.440       .  S
C152        H153   1.080       .  S
C154        N155   1.357       .  A
C154        H164   1.082       .  S
N155        C156   1.363       .  A
C156        H162   1.082       .  S
C157        N158   1.359       .  A
C157        H159   1.081       .  S
N158        C160   1.359       .  A
N158        C412   1.453       .  S
C160        H161   1.081       .  S
C165        C166   1.548       .  S
C165        C171   1.539       .  S
C165        C169   1.533       .  S
C165        C348   1.539       .  S
C166        H173   1.084       .  S
C166        C167   1.367       .  D
C167        C168   1.543       .  S
C167       C1116   1.499       .  S
C168        C172   1.545       .  S
C168        C170   1.536       .  S
C168        H174   1.108       .  S
C169        H175   1.087       .  S
C169        C170   1.362       .  D
C170        C453   1.486       .  S
C171        H176   1.078       .  S
C171        C172   1.364       .  D
C172        C380   1.485       .  S
C177        C178   1.531       .  S
C177        C183   1.541       .  S
C177        C181   1.550       .  S
C177        C284   1.555       .  S
C178        H185   1.084       .  S
C178        C179   1.362       .  D
C179        C180   1.548       .  S
C179        C645   1.495       .  S
C180        C184   1.554       .  S
C180        C182   1.543       .  S
C180        H186   1.111       .  S
C181        H187   1.084       .  S
C181        C182   1.366       .  D
C182        C421   1.496       .  S
C183        H188   1.079       .  S
C183        C184   1.374       .  D
C184        C316   1.505       .  S
C189        C191   1.531       .  S
C189        C193   1.554       .  S
C189        C192   1.567       .  S
C189        C837   1.557       .  S
C190        C194   1.528       .  S
C190        C196   1.559       .  S
C190        C195   1.545       .  S
C190        C389   1.547       .  S
C191        C199   1.380       .  A
C191        C194   1.377       .  A
C192        C203   1.394   1_554  A
C192        C195   1.412       .  A
C193        C207   1.384       .  A
C193        C196   1.397       .  A
C194        C197   1.379       .  A
C195        C201   1.378   1_554  A
C196        C204   1.393       .  A
C197        N198   1.357       .  A
C197        H210   1.082       .  S
N198        C199   1.358       .  A
N198        C581   1.441       .  S
C199        H200   1.081       .  S
C201        N202   1.353       .  A
C201        H211   1.082       .  S
N202        C203   1.363       .  A
N202        N225   1.412       .  S
C203        H209   1.077       .  S
C204        N205   1.357       .  A
C204        H206   1.080       .  S
N205        C207   1.356       .  A
N205       C1221   1.448       .  S
C207        H208   1.081       .  S
C212        C214   1.559       .  S
C212        C216   1.556       .  S
C212        C215   1.547       .  S
C212        C325   1.549       .  S
C213        C217   1.531       .  S
C213        C219   1.552       .  S
C213        C218   1.535       .  S
C213        C773   1.539       .  S
C214        C222   1.388       .  A
C214        C217   1.387       .  A
C215        C226   1.390       .  A
C215        C218   1.393       .  A
C216        C230   1.390       .  A
C216        C219   1.406       .  A
C217        C220   1.376       .  A
C218        C224   1.381       .  A
C219        C227   1.387       .  A
C220        N221   1.358       .  A
C220        H233   1.080       .  S
N221        C222   1.362       .  A
N221        C517   1.456       .  S
C222        H223   1.073       .  S
C224        N225   1.355       .  A
C224        H234   1.082       .  S
N225        C226   1.363       .  A
C226        H232   1.082       .  S
C227        N228   1.352       .  A
C227        H229   1.080       .  S
N228        C230   1.355       .  A
N228       C1020   1.442       .  S
C230        H231   1.081       .  S
N235        N236   1.325   1_556  A
N235        N241   1.316       .  A
N235       Mn264   2.229   1_455  S
N236        C243   1.360       .  A
N237        N239   1.313       .  A
N237        N238   1.318       .  A
N237       Mn253   2.188   1_545  S
N238        C244   1.353       .  A
N239        N240   1.317       .  A
N239       Mn264   2.185   1_455  S
N240        C244   1.350       .  A
N241        N242   1.318   1_556  A
N241       Mn253   2.194   1_545  S
N242        C243   1.349       .  A
C243       C1189   1.494       .  S
C244        C741   1.468       .  S
N245        N251   1.315       .  A
N245        N246   1.323       .  A
N245       Mn275   2.209   1_455  S
N246        C254   1.356       .  A
N247        N248   1.318   1_556  A
N247        N249   1.314       .  A
N247       Mn253   2.191       .  S
N248        C255   1.352       .  A
N249        N250   1.320   1_556  A
N249       Mn275   2.196   1_455  S
N250        C255   1.353       .  A
N251        N252   1.317       .  A
N251       Mn253   2.194       .  S
N252        C254   1.350       .  A
Mn253      Cl277   2.537   1_455  S
C254        C988   1.482       .  S
C255        C357   1.477       .  S
N256        N257   1.323       .  A
N256        N262   1.315       .  A
N256       Mn264   2.220       .  S
N257        C265   1.357       .  A
N258        N260   1.314       .  A
N258        N259   1.323   1_556  A
N258       Mn276   2.223   1_545  S
N259        C266   1.357       .  A
N260        N261   1.320   1_556  A
N260       Mn264   2.196       .  S
N261        C266   1.356       .  A
N262        N263   1.318       .  A
N262       Mn276   2.191   1_545  S
N263        C265   1.351       .  A
Mn264      Cl277   2.553   1_545  S
C265        C485   1.480       .  S
C266        C805   1.501       .  S
N267        N268   1.320   1_556  A
N267        N273   1.316       .  A
N267       Mn275   2.207       .  S
N268        C278   1.353       .  A
N269        N270   1.323       .  A
N269        N271   1.315       .  A
N269       Mn276   2.218       .  S
N270        C279   1.357       .  A
N271        N272   1.319       .  A
N271       Mn275   2.196       .  S
N272        C279   1.351       .  A
N273        N274   1.316   1_556  A
N273       Mn276   2.181       .  S
N274        C278   1.348       .  A
Mn275      Cl277   2.552       .  S
Mn276      Cl277   2.541       .  S
C278        C540   1.464       .  S
C279        C293   1.484       .  S
C280        C281   1.394       .  A
C280        C285   1.409       .  A
C280        H290   1.084       .  S
C281        C282   1.408       .  A
C281        C286   1.486       .  S
C282        C287   1.520       .  S
C282        C283   1.408       .  A
C283        C284   1.420       .  A
C283        H288   1.078       .  S
C284        C285   1.437       .  A
C285        C289   1.520       .  S
C286        C291   1.415       .  A
C286        C295   1.402       .  A
C287        F303   1.382       .  S
C287        F304   1.382       .  S
C287        F305   1.384       .  S
C289        F300   1.378       .  S
C289        F301   1.386       .  S
C289        F302   1.377       .  S
C291        C296   1.519       .  S
C291        C292   1.408       .  A
C292        C293   1.405       .  A
C292        H297   1.083       .  S
C293        C294   1.420       .  A
C294        C298   1.519       .  S
C294        C295   1.408       .  A
C295        H299   1.083       .  S
C296        F309   1.384       .  S
C296        F310   1.382       .  S
C296        F311   1.382       .  S
C298        F306   1.382       .  S
C298        F307   1.383       .  S
C298        F308   1.385       .  S
C312        C313   1.398       .  A
C312        C317   1.405       .  A
C312        H322   1.083       .  S
C313        C314   1.421       .  A
C313        C318   1.498       .  S
C314        C319   1.518       .  S
C314        C315   1.417       .  A
C315        C316   1.407       .  A
C315        H320   1.083       .  S
C316        C317   1.423       .  A
C317        C321   1.513       .  S
C318        C323   1.419       .  A
C318        C327   1.404       .  A
C319        F335   1.382       .  S
C319        F336   1.384       .  S
C319        F337   1.384       .  S
C321        F332   1.384       .  S
C321        F333   1.381       .  S
C321        F334   1.378       .  S
C323        C328   1.520       .  S
C323        C324   1.409       .  A
C324        C325   1.405       .  A
C324        H329   1.080       .  S
C325        C326   1.426       .  A
C326        C330   1.519       .  S
C326        C327   1.411       .  A
C327        H331   1.084       .  S
C328        F341   1.385       .  S
C328        F342   1.380       .  S
C328        F343   1.383       .  S
C330        F338   1.384       .  S
C330        F339   1.380       .  S
C330        F340   1.382       .  S
C344        C345   1.399       .  A
C344        C349   1.405       .  A
C344        H354   1.084       .  S
C345        C346   1.411       .  A
C345        C350   1.477       .  S
C346        C351   1.521       .  S
C346        C347   1.403       .  A
C347        C348   1.413       .  A
C347        H352   1.080       .  S
C348        C349   1.429       .  A
C349        C353   1.521       .  S
C350        C355   1.413       .  A
C350        C359   1.400       .  A
C351        F367   1.382       .  S
C351        F368   1.381       .  S
C351        F369   1.384       .  S
C353        F364   1.385       .  S
C353        F365   1.383       .  S
C353        F366   1.380       .  S
C355        C360   1.519       .  S
C355        C356   1.405       .  A
C356        C357   1.405       .  A
C356        H361   1.083       .  S
C357        C358   1.420       .  A
C358        C362   1.520       .  S
C358        C359   1.403       .  A
C359        H363   1.083       .  S
C360        F373   1.385       .  S
C360        F374   1.382       .  S
C360        F375   1.381       .  S
C362        F370   1.383   1_554  S
C362        F371   1.382       .  S
C362        F372   1.386       .  S
C376        C377   1.400       .  A
C376        C381   1.409       .  A
C376        H386   1.083       .  S
C377        C378   1.415       .  A
C377        C382   1.480       .  S
C378        C383   1.522       .  S
C378        C379   1.402       .  A
C379        C380   1.402       .  A
C379        H384   1.083       .  S
C380        C381   1.423       .  A
C381        C385   1.521       .  S
C382        C387   1.405       .  A
C382        C391   1.396       .  A
C383        F399   1.382       .  S
C383        F400   1.382       .  S
C383        F401   1.385       .  S
C385        F396   1.385       .  S
C385        F397   1.381       .  S
C385        F398   1.382       .  S
C387        C392   1.523       .  S
C387        C388   1.398       .  A
C388        C389   1.412       .  A
C388        H393   1.065       .  S
C389        C390   1.443       .  A
C390        C394   1.528       .  S
C390        C391   1.413       .  A
C391        H395   1.084       .  S
C392        F405   1.385       .  S
C392        F406   1.383       .  S
C392        F407   1.381       .  S
C394        F402   1.383   1_554  S
C394        F403   1.374       .  S
C394        F404   1.385       .  S
C408        C409   1.401       .  A
C408        C413   1.411       .  A
C408        H418   1.084       .  S
C409        C410   1.417       .  A
C409        C414   1.498       .  S
C410        C415   1.518       .  S
C410        C411   1.414       .  A
C411        C412   1.407       .  A
C411        H416   1.083       .  S
C412        C413   1.423       .  A
C413        C417   1.515       .  S
C414        C419   1.419       .  A
C414        C423   1.402       .  A
C415        F431   1.382       .  S
C415        F432   1.382       .  S
C415        F433   1.384       .  S
C417        F428   1.380       .  S
C417        F429   1.385       .  S
C417        F430   1.384       .  S
C419        C424   1.518       .  S
C419        C420   1.415       .  A
C420        C421   1.405       .  A
C420        H425   1.083       .  S
C421        C422   1.420       .  A
C422        C426   1.518       .  S
C422        C423   1.408       .  A
C423        H427   1.085       .  S
C424        F437   1.385       .  S
C424        F438   1.382       .  S
C424        F439   1.382       .  S
C426        F434   1.382       .  S
C426        F435   1.382       .  S
C426        F436   1.384       .  S
C440        C441   1.403       .  A
C440        C445   1.408       .  A
C440        H450   1.084       .  S
C441        C442   1.415       .  A
C441        C446   1.482       .  S
C442        C447   1.522       .  S
C442        C443   1.403       .  A
C443        C444   1.404       .  A
C443        H448   1.083       .  S
C444        C445   1.417       .  A
C445        C449   1.515       .  S
C446        C451   1.415       .  A
C446        C455   1.400       .  A
C447        F463   1.382       .  S
C447        F464   1.382       .  S
C447        F465   1.384       .  S
C449        F460   1.384       .  S
C449        F461   1.382       .  S
C449        F462   1.383       .  S
C451        C456   1.519       .  S
C451        C452   1.407       .  A
C452        C453   1.405       .  A
C452        H457   1.083       .  S
C453        C454   1.417       .  A
C454        C458   1.514       .  S
C454        C455   1.406       .  A
C455        H459   1.083       .  S
C456        F469   1.385       .  S
C456        F470   1.382       .  S
C456        F471   1.382       .  S
C458        F466   1.379       .  S
C458        F467   1.382       .  S
C458        F468   1.384       .  S
C472        C473   1.397       .  A
C472        C477   1.409       .  A
C472        H482   1.085       .  S
C473        C474   1.408       .  A
C473        C478   1.486       .  S
C474        C479   1.522       .  S
C474        C475   1.406       .  A
C475        C476   1.419       .  A
C475        H480   1.075       .  S
C476        C477   1.435       .  A
C477        C481   1.522       .  S
C478        C483   1.415       .  A
C478        C487   1.402       .  A
C479        F495   1.382       .  S
C479        F496   1.382       .  S
C479        F497   1.384       .  S
C481        F492   1.382       .  S
C481        F493   1.385       .  S
C481        F494   1.374       .  S
C483        C488   1.518       .  S
C483        C484   1.408       .  A
C484        C485   1.404       .  A
C484        H489   1.083       .  S
C485        C486   1.418       .  A
C486        C490   1.519       .  S
C486        C487   1.406       .  A
C487        H491   1.083       .  S
C488        F501   1.385       .  S
C488        F502   1.382       .  S
C488        F503   1.382       .  S
C490        F498   1.382       .  S
C490        F499   1.383       .  S
C490        F500   1.385       .  S
C504        C505   1.404       .  A
C504        C509   1.405       .  A
C504        H514   1.082       .  S
C505        C506   1.418       .  A
C505        C510   1.496       .  S
C506        C511   1.519       .  S
C506        C507   1.406       .  A
C507        C508   1.412       .  A
C507        H512   1.082       .  S
C508        C509   1.421       .  A
C509        C513   1.515       .  S
C510        C515   1.418       .  A
C510        C519   1.405       .  A
C511        F527   1.382       .  S
C511        F528   1.382       .  S
C511        F529   1.385       .  S
C513        F524   1.382       .  S
C513        F525   1.380       .  S
C513        F526   1.385       .  S
C515        C520   1.519       .  S
C515        C516   1.403       .  A
C516        C517   1.411       .  A
C516        H521   1.080       .  S
C517        C518   1.424       .  A
C518        C522   1.516       .  S
C518        C519   1.407       .  A
C519        H523   1.083       .  S
C520        F533   1.384       .  S
C520        F534   1.382       .  S
C520        F535   1.384       .  S
C522        F530   1.381       .  S
C522        F531   1.383       .  S
C522        F532   1.384       .  S
C536        C537   1.399       .  A
C536        C541   1.399       .  A
C536        H546   1.084       .  S
C537        C538   1.415       .  A
C537        C542   1.473       .  S
C538        C543   1.519       .  S
C538        C539   1.405       .  A
C539        C540   1.402       .  A
C539        H544   1.084       .  S
C540        C541   1.415       .  A
C541        C545   1.519       .  S
C542        C547   1.409       .  A
C542        C551   1.390       .  A
C543        F559   1.382       .  S
C543        F560   1.382       .  S
C543        F561   1.385       .  S
C545        F556   1.382       .  S
C545        F557   1.384       .  S
C545        F558   1.384   1_554  S
C547        C552   1.521       .  S
C547        C548   1.404       .  A
C548        C549   1.415       .  A
C548        H553   1.080       .  S
C549        C550   1.438       .  A
C550        C554   1.523       .  S
C550        C551   1.400       .  A
C551        H555   1.086       .  S
C552        F565   1.385       .  S
C552        F566   1.382       .  S
C552        F567   1.382       .  S
C554        F562   1.385       .  S
C554        F563   1.367       .  S
C554        F564   1.383       .  S
C568        C569   1.396       .  A
C568        C573   1.402       .  A
C568        H578   1.084       .  S
C569        C570   1.414       .  A
C569        C574   1.485       .  S
C570        C575   1.517       .  S
C570        C571   1.413       .  A
C571        C572   1.408       .  A
C571        H576   1.083       .  S
C572        C573   1.423       .  A
C573        C577   1.515       .  S
C574        C579   1.417       .  A
C574        C583   1.403       .  A
C575        F591   1.383       .  S
C575        F592   1.381       .  S
C575        F593   1.384       .  S
C577        F588   1.380       .  S
C577        F589   1.385       .  S
C577        F590   1.381       .  S
C579        C584   1.521       .  S
C579        C580   1.406       .  A
C580        C581   1.403       .  A
C580        H585   1.083       .  S
C581        C582   1.418       .  A
C582        C586   1.517       .  S
C582        C583   1.409       .  A
C583        H587   1.083       .  S
C584        F597   1.385       .  S
C584        F598   1.382       .  S
C584        F599   1.381       .  S
C586        F594   1.381       .  S
C586        F595   1.383       .  S
C586        F596   1.384       .  S
C600        C601   1.395       .  A
C600        C605   1.406       .  A
C600        H610   1.085       .  S
C601        C602   1.405       .  A
C601        C606   1.479       .  S
C602        C607   1.521       .  S
C602        C603   1.406       .  A
C603        C604   1.420       .  A
C603        H608   1.076       .  S
C604        C605   1.433       .  A
C605        C609   1.517       .  S
C606        C611   1.411       .  A
C606        C615   1.400       .  A
C607        F623   1.383       .  S
C607        F624   1.381       .  S
C607        F625   1.384       .  S
C609        F620   1.383       .  S
C609        F621   1.386       .  S
C609        F622   1.375       .  S
C611        C616   1.522       .  S
C611        C612   1.402       .  A
C612        C613   1.406       .  A
C612        H617   1.076       .  S
C613        C614   1.430       .  A
C614        C618   1.521       .  S
C614        C615   1.409       .  A
C615        H619   1.084       .  S
C616        F629   1.384       .  S
C616        F630   1.383       .  S
C616        F631   1.381       .  S
C618        F626   1.379       .  S
C618        F627   1.376       .  S
C618        F628   1.384       .  S
C632        C633   1.407       .  A
C632        C637   1.424       .  A
C632        H642   1.083       .  S
C633        C634   1.410       .  A
C633        C638   1.499       .  S
C634        C639   1.525       .  S
C634        C635   1.400       .  A
C635        C636   1.421       .  A
C635        H640   1.080       .  S
C636        C637   1.432       .  A
C637        C641   1.517       .  S
C638        C643   1.420       .  A
C638        C647   1.401       .  A
C639        F655   1.382       .  S
C639        F656   1.383       .  S
C639        F657   1.384       .  S
C641        F652   1.385       .  S
C641        F653   1.378       .  S
C641        F654   1.379       .  S
C643        C648   1.518       .  S
C643        C644   1.414       .  A
C644        C645   1.404       .  A
C644        H649   1.083       .  S
C645        C646   1.424       .  A
C646        C650   1.524       .  S
C646        C647   1.409       .  A
C647        H651   1.083       .  S
C648        F661   1.385       .  S
C648        F662   1.382       .  S
C648        F663   1.383       .  S
C650        F658   1.380       .  S
C650        F659   1.382       .  S
C650        F660   1.385       .  S
C664        C665   1.398       .  A
C664        C669   1.400       .  A
C664        H674   1.084       .  S
C665        C666   1.413       .  A
C665        C670   1.473       .  S
C666        C671   1.519       .  S
C666        C667   1.406       .  A
C667        C668   1.404       .  A
C667        H672   1.084       .  S
C668        C669   1.419       .  A
C669        C673   1.521       .  S
C670        C675   1.416       .  A
C670        C679   1.400       .  A
C671        F687   1.382       .  S
C671        F688   1.381       .  S
C671        F689   1.385       .  S
C673        F684   1.385       .  S
C673        F685   1.380       .  S
C673        F686   1.380       .  S
C675        C680   1.520       .  S
C675        C676   1.405       .  A
C676        C677   1.399       .  A
C676        H681   1.083       .  S
C677        C678   1.414       .  A
C678        C682   1.519       .  S
C678        C679   1.401       .  A
C679        H683   1.083       .  S
C680        F693   1.384       .  S
C680        F694   1.382       .  S
C680        F695   1.381       .  S
C682        F690   1.384       .  S
C682        F691   1.382       .  S
C682        F692   1.381       .  S
C696        C697   1.396       .  A
C696        C701   1.401       .  A
C696        H706   1.084       .  S
C697        C698   1.415       .  A
C697        C702   1.470       .  S
C698        C703   1.521       .  S
C698        C699   1.400       .  A
C699        C700   1.400       .  A
C699        H704   1.082       .  S
C700        C701   1.423       .  A
C701        C705   1.522       .  S
C702        C707   1.412       .  A
C702        C711   1.396       .  A
C703        F719   1.382       .  S
C703        F720   1.382       .  S
C703        F721   1.385       .  S
C705        F716   1.382       .  S
C705        F717   1.385       .  S
C705        F718   1.383       .  S
C707        C712   1.518       .  S
C707        C708   1.403       .  A
C708        C709   1.403       .  A
C708        H713   1.083       .  S
C709        C710   1.421       .  A
C710        C714   1.520       .  S
C710        C711   1.399       .  A
C711        H715   1.084       .  S
C712        F725   1.384       .  S
C712        F726   1.382       .  S
C712        F727   1.382       .  S
C714        F722   1.381       .  S
C714        F723   1.382       .  S
C714        F724   1.385       .  S
C728        C729   1.392       .  A
C728        C733   1.401       .  A
C728        H738   1.086       .  S
C729        C730   1.407       .  A
C729        C734   1.473       .  S
C730        C735   1.520       .  S
C730        C731   1.405       .  A
C731        C732   1.418       .  A
C731        H736   1.077       .  S
C732        C733   1.433       .  A
C733        C737   1.516       .  S
C734        C739   1.413       .  A
C734        C743   1.402       .  A
C735        F751   1.382       .  S
C735        F752   1.382       .  S
C735        F753   1.384       .  S
C737        F748   1.382       .  S
C737        F749   1.385       .  S
C737        F750   1.369       .  S
C739        C744   1.519       .  S
C739        C740   1.402       .  A
C740        C741   1.403       .  A
C740        H745   1.083       .  S
C741        C742   1.415       .  A
C742        C746   1.520       .  S
C742        C743   1.403       .  A
C743        H747   1.084       .  S
C744        F757   1.385       .  S
C744        F758   1.383       .  S
C744        F759   1.381       .  S
C746        F754   1.383       .  S
C746        F755   1.383       .  S
C746        F756   1.385       .  S
C760        C761   1.396       .  A
C760        C765   1.404       .  A
C760        H770   1.083       .  S
C761        C762   1.418       .  A
C761        C766   1.486       .  S
C762        C767   1.521       .  S
C762        C763   1.406       .  A
C763        C764   1.402       .  A
C763        H768   1.080       .  S
C764        C765   1.426       .  A
C765        C769   1.512       .  S
C766        C771   1.415       .  A
C766        C775   1.396       .  A
C767        F783   1.381       .  S
C767        F784   1.384       .  S
C767        F785   1.384       .  S
C769        F780   1.385       .  S
C769        F781   1.379       .  S
C769        F782   1.378       .  S
C771        C776   1.520       .  S
C771        C772   1.406       .  A
C772        C773   1.406       .  A
C772        H777   1.078       .  S
C773        C774   1.435       .  A
C774        C778   1.525       .  S
C774        C775   1.404       .  A
C775        H779   1.085       .  S
C776        F789   1.385       .  S
C776        F790   1.381       .  S
C776        F791   1.383       .  S
C778        F786   1.383       .  S
C778        F787   1.375       .  S
C778        F788   1.383       .  S
C792        C793   1.399       .  A
C792        C797   1.412       .  A
C792        H802   1.084       .  S
C793        C794   1.411       .  A
C793        C798   1.492       .  S
C794        C799   1.521       .  S
C794        C795   1.409       .  A
C795        C796   1.417       .  A
C795        H800   1.076       .  S
C796        C797   1.435       .  A
C797        C801   1.524       .  S
C798        C803   1.413       .  A
C798        C807   1.402       .  A
C799        F815   1.382       .  S
C799        F816   1.382       .  S
C799        F817   1.385       .  S
C801        F812   1.383       .  S
C801        F813   1.385       .  S
C801        F814   1.377       .  S
C803        C808   1.520       .  S
C803        C804   1.409       .  A
C804        C805   1.410       .  A
C804        H809   1.082       .  S
C805        C806   1.425       .  A
C806        C810   1.520       .  S
C806        C807   1.413       .  A
C807        H811   1.083       .  S
C808        F821   1.384       .  S
C808        F822   1.382       .  S
C808        F823   1.382       .  S
C810        F818   1.385       .  S
C810        F819   1.384       .  S
C810        F820   1.383       .  S
C824        C825   1.404       .  A
C824        C829   1.414       .  A
C824        H834   1.084       .  S
C825        C826   1.412       .  A
C825        C830   1.494       .  S
C826        C831   1.519       .  S
C826        C827   1.408       .  A
C827        C828   1.412       .  A
C827        H832   1.083       .  S
C828        C829   1.424       .  A
C829        C833   1.517       .  S
C830        C835   1.408       .  A
C830        C839   1.404       .  A
C831        F847   1.382       .  S
C831        F848   1.382       .  S
C831        F849   1.385       .  S
C833        F844   1.380       .  S
C833        F845   1.385       .  S
C833        F846   1.378       .  S
C835        C840   1.524       .  S
C835        C836   1.402       .  A
C836        C837   1.420       .  A
C836        H841   1.079       .  S
C837        C838   1.434       .  A
C838        C842   1.519       .  S
C838        C839   1.419       .  A
C839        H843   1.085       .  S
C840        F853   1.385       .  S
C840        F854   1.382       .  S
C840        F855   1.382       .  S
C842        F850   1.385       .  S
C842        F851   1.378       .  S
C842        F852   1.381   1_554  S
C856        C857   1.401       .  A
C856        C861   1.413       .  A
C856        H866   1.084       .  S
C857        C858   1.422       .  A
C857        C862   1.503       .  S
C858        C863   1.521       .  S
C858        C859   1.413       .  A
C859        C860   1.405       .  A
C859        H864   1.083       .  S
C860        C861   1.428       .  A
C861        C865   1.521       .  S
C862        C867   1.416       .  A
C862        C871   1.392       .  A
C863        F879   1.381       .  S
C863        F880   1.383       .  S
C863        F881   1.385       .  S
C865        F876   1.382       .  S
C865        F877   1.385       .  S
C865        F878   1.380       .  S
C867        C872   1.517       .  S
C867        C868   1.420       .  A
C868        C869   1.414       .  A
C868        H873   1.079       .  S
C869        C870   1.447       .  A
C870        C874   1.535       .  S
C870        C871   1.406       .  A
C871        H875   1.086       .  S
C872        F885   1.384       .  S
C872        F886   1.382       .  S
C872        F887   1.383       .  S
C874        F882   1.385       .  S
C874        F883   1.383       .  S
C874        F884   1.373       .  S
C888        C889   1.396       .  A
C888        C893   1.405       .  A
C888        H898   1.085       .  S
C889        C890   1.413       .  A
C889        C894   1.487       .  S
C890        C895   1.520       .  S
C890        C891   1.407       .  A
C891        C892   1.408       .  A
C891        H896   1.076       .  S
C892        C893   1.437       .  A
C893        C897   1.526       .  S
C894        C899   1.418       .  A
C894        C903   1.401       .  A
C895        F911   1.381       .  S
C895        F912   1.384       .  S
C895        F913   1.385       .  S
C897        F908   1.384       .  S
C897        F909   1.383       .  S
C897        F910   1.374       .  S
C899        C904   1.523       .  S
C899        C900   1.402       .  A
C900        C901   1.403       .  A
C900        H905   1.083       .  S
C901        C902   1.425       .  A
C902        C906   1.521       .  S
C902        C903   1.410       .  A
C903        H907   1.082       .  S
C904        F917   1.385       .  S
C904        F918   1.381       .  S
C904        F919   1.384       .  S
C906        F914   1.380       .  S
C906        F915   1.384       .  S
C906        F916   1.385       .  S
C920        C921   1.395       .  A
C920        C925   1.407       .  A
C920        H930   1.084       .  S
C921        C922   1.413       .  A
C921        C926   1.492       .  S
C922        C927   1.518       .  S
C922        C923   1.413       .  A
C923        C924   1.411       .  A
C923        H928   1.080       .  S
C924        C925   1.438       .  A
C925        C929   1.526       .  S
C926        C931   1.418       .  A
C926        C935   1.406       .  A
C927        F943   1.382       .  S
C927        F944   1.383       .  S
C927        F945   1.384       .  S
C929        F940   1.382       .  S
C929        F941   1.386       .  S
C929        F942   1.377       .  S
C931        C936   1.521       .  S
C931        C932   1.405       .  A
C932        C933   1.404       .  A
C932        H937   1.082       .  S
C933        C934   1.418       .  A
C934        C938   1.516       .  S
C934        C935   1.411       .  A
C935        H939   1.084       .  S
C936        F949   1.385       .  S
C936        F950   1.381       .  S
C936        F951   1.382       .  S
C938        F946   1.382       .  S
C938        F947   1.383       .  S
C938        F948   1.384       .  S
C952        C953   1.403       .  A
C952        C957   1.407       .  A
C952        H962   1.084       .  S
C953        C954   1.420       .  A
C953        C958   1.495       .  S
C954        C959   1.517       .  S
C954        C955   1.415       .  A
C955        C956   1.403       .  A
C955        H960   1.083       .  S
C956        C957   1.413       .  A
C957        C961   1.516       .  S
C958        C963   1.420       .  A
C958        C967   1.403       .  A
C959        F975   1.382       .  S
C959        F976   1.381       .  S
C959        F977   1.385       .  S
C961        F972   1.382       .  S
C961        F973   1.384       .  S
C961        F974   1.383       .  S
C963        C968   1.519       .  S
C963        C964   1.412       .  A
C964        C965   1.403       .  A
C964        H969   1.083       .  S
C965        C966   1.418       .  A
C966        C970   1.514       .  S
C966        C967   1.411       .  A
C967        H971   1.083       .  S
C968        F981   1.385       .  S
C968        F982   1.382       .  S
C968        F983   1.381       .  S
C970        F978   1.385       .  S
C970        F979   1.383       .  S
C970        F980   1.380       .  S
C984        C985   1.399       .  A
C984        C989   1.406       .  A
C984        H994   1.083       .  S
C985        C986   1.416       .  A
C985        C990   1.483       .  S
C986        C991   1.520       .  S
C986        C987   1.408       .  A
C987        C988   1.404       .  A
C987        H992   1.083       .  S
C988        C989   1.423       .  A
C989        C993   1.520       .  S
C990        C995   1.407       .  A
C990        C999   1.396       .  A
C991       F1007   1.382       .  S
C991       F1008   1.382       .  S
C991       F1009   1.384       .  S
C993       F1004   1.383       .  S
C993       F1005   1.385       .  S
C993       F1006   1.384       .  S
C995       C1000   1.523       .  S
C995        C996   1.405       .  A
C996        C997   1.418       .  A
C996       H1001   1.072       .  S
C997        C998   1.439       .  A
C998       C1002   1.528       .  S
C998        C999   1.410       .  A
C999       H1003   1.084       .  S
C1000      F1013   1.384       .  S
C1000      F1014   1.383       .  S
C1000      F1015   1.382       .  S
C1002      F1010   1.383       .  S
C1002      F1011   1.376       .  S
C1002      F1012   1.385       .  S
C1016      C1017   1.403       .  A
C1016      C1021   1.407       .  A
C1016      H1026   1.083       .  S
C1017      C1018   1.419       .  A
C1017      C1022   1.496       .  S
C1018      C1023   1.517       .  S
C1018      C1019   1.415       .  A
C1019      C1020   1.403       .  A
C1019      H1024   1.083       .  S
C1020      C1021   1.415       .  A
C1021      C1025   1.517       .  S
C1022      C1027   1.419       .  A
C1022      C1031   1.400       .  A
C1023      F1039   1.383       .  S
C1023      F1040   1.382       .  S
C1023      F1041   1.384       .  S
C1025      F1036   1.382       .  S
C1025      F1037   1.385       .  S
C1025      F1038   1.383       .  S
C1027      C1032   1.519       .  S
C1027      C1028   1.412       .  A
C1028      C1029   1.404       .  A
C1028      H1033   1.083       .  S
C1029      C1030   1.425       .  A
C1030      C1034   1.518       .  S
C1030      C1031   1.408       .  A
C1031      H1035   1.085       .  S
C1032      F1045   1.385       .  S
C1032      F1046   1.382       .  S
C1032      F1047   1.382       .  S
C1034      F1042   1.384       .  S
C1034      F1043   1.376       .  S
C1034      F1044   1.384       .  S
C1048      C1049   1.403       .  A
C1048      C1053   1.409       .  A
C1048      H1058   1.084       .  S
C1049      C1050   1.416       .  A
C1049      C1054   1.489       .  S
C1050      C1055   1.521       .  S
C1050      C1051   1.407       .  A
C1051      C1052   1.408       .  A
C1051      H1056   1.082       .  S
C1052      C1053   1.423       .  A
C1053      C1057   1.517       .  S
C1054      C1059   1.416       .  A
C1054      C1063   1.397       .  A
C1055      F1071   1.381       .  S
C1055      F1072   1.383       .  S
C1055      F1073   1.385       .  S
C1057      F1068   1.383       .  S
C1057      F1069   1.384       .  S
C1057      F1070   1.380       .  S
C1059      C1064   1.519       .  S
C1059      C1060   1.410       .  A
C1060      C1061   1.408       .  A
C1060      H1065   1.081       .  S
C1061      C1062   1.429       .  A
C1062      C1066   1.521       .  S
C1062      C1063   1.405       .  A
C1063      H1067   1.085       .  S
C1064      F1077   1.385       .  S
C1064      F1078   1.382       .  S
C1064      F1079   1.383       .  S
C1066      F1074   1.383       .  S
C1066      F1075   1.378       .  S
C1066      F1076   1.385       .  S
C1080      C1081   1.397       .  A
C1080      C1085   1.397       .  A
C1080      H1090   1.084       .  S
C1081      C1082   1.412       .  A
C1081      C1086   1.472       .  S
C1082      C1087   1.519       .  S
C1082      C1083   1.408       .  A
C1083      C1084   1.405       .  A
C1083      H1088   1.081       .  S
C1084      C1085   1.414       .  A
C1085      C1089   1.511       .  S
C1086      C1091   1.417       .  A
C1086      C1095   1.404       .  A
C1087      F1103   1.383       .  S
C1087      F1104   1.381       .  S
C1087      F1105   1.385       .  S
C1089      F1100   1.385       .  S
C1089      F1101   1.381       .  S
C1089      F1102   1.380       .  S
C1091      C1096   1.522       .  S
C1091      C1092   1.400       .  A
C1092      C1093   1.396       .  A
C1092      H1097   1.083       .  S
C1093      C1094   1.408       .  A
C1094      C1098   1.515       .  S
C1094      C1095   1.405       .  A
C1095      H1099   1.083       .  S
C1096      F1109   1.385       .  S
C1096      F1110   1.382       .  S
C1096      F1111   1.381       .  S
C1098      F1106   1.384       .  S
C1098      F1107   1.383       .  S
C1098      F1108   1.383       .  S
C1112      C1113   1.401       .  A
C1112      C1117   1.408       .  A
C1112      H1122   1.085       .  S
C1113      C1114   1.413       .  A
C1113      C1118   1.481       .  S
C1114      C1119   1.522       .  S
C1114      C1115   1.403       .  A
C1115      C1116   1.410       .  A
C1115      H1120   1.082       .  S
C1116      C1117   1.423       .  A
C1117      C1121   1.515       .  S
C1118      C1123   1.414       .  A
C1118      C1127   1.400       .  A
C1119      F1135   1.382       .  S
C1119      F1136   1.381       .  S
C1119      F1137   1.384       .  S
C1121      F1132   1.384       .  S
C1121      F1133   1.383       .  S
C1121      F1134   1.377       .  S
C1123      C1128   1.519       .  S
C1123      C1124   1.410       .  A
C1124      C1125   1.406       .  A
C1124      H1129   1.083       .  S
C1125      C1126   1.417       .  A
C1126      C1130   1.517       .  S
C1126      C1127   1.403       .  A
C1127      H1131   1.084       .  S
C1128      F1141   1.385       .  S
C1128      F1142   1.382       .  S
C1128      F1143   1.381       .  S
C1130      F1138   1.385       .  S
C1130      F1139   1.383       .  S
C1130      F1140   1.381       .  S
C1144      C1145   1.403       .  A
C1144      C1149   1.412       .  A
C1144      H1154   1.083       .  S
C1145      C1146   1.422       .  A
C1145      C1150   1.496       .  S
C1146      C1151   1.520       .  S
C1146      C1147   1.412       .  A
C1147      C1148   1.401       .  A
C1147      H1152   1.083       .  S
C1148      C1149   1.417       .  A
C1149      C1153   1.514       .  S
C1150      C1155   1.416       .  A
C1150      C1159   1.384       .  A
C1151      F1167   1.382       .  S
C1151      F1168   1.381       .  S
C1151      F1169   1.385       .  S
C1153      F1164   1.384       .  S
C1153      F1165   1.382       .  S
C1153      F1166   1.381       .  S
C1155      C1160   1.515       .  S
C1155      C1156   1.423       .  A
C1156      C1157   1.412       .  A
C1156      H1161   1.077       .  S
C1157      C1158   1.452       .  A
C1158      C1162   1.534       .  S
C1158      C1159   1.399       .  A
C1159      H1163   1.087       .  S
C1160      F1173   1.384       .  S
C1160      F1174   1.382       .  S
C1160      F1175   1.382       .  S
C1162      F1170   1.366       .  S
C1162      F1171   1.384       .  S
C1162      F1172   1.385       .  S
C1176      C1177   1.395       .  A
C1176      C1181   1.406       .  A
C1176      H1186   1.085       .  S
C1177      C1178   1.413       .  A
C1177      C1182   1.490       .  S
C1178      C1183   1.521       .  S
C1178      C1179   1.411       .  A
C1179      C1180   1.416       .  A
C1179      H1184   1.077       .  S
C1180      C1181   1.439       .  A
C1181      C1185   1.528       .  S
C1182      C1187   1.417       .  A
C1182      C1191   1.399       .  A
C1183      F1199   1.382       .  S
C1183      F1200   1.382       .  S
C1183      F1201   1.385       .  S
C1185      F1196   1.385       .  S
C1185      F1197   1.383       .  S
C1185      F1198   1.377       .  S
C1187      C1192   1.519       .  S
C1187      C1188   1.410       .  A
C1188      C1189   1.406       .  A
C1188      H1193   1.083       .  S
C1189      C1190   1.427       .  A
C1190      C1194   1.521       .  S
C1190      C1191   1.409       .  A
C1191      H1195   1.083       .  S
C1192      F1205   1.384       .  S
C1192      F1206   1.381       .  S
C1192      F1207   1.382       .  S
C1194      F1202   1.385       .  S
C1194      F1203   1.383       .  S
C1194      F1204   1.383       .  S
C1208      C1209   1.399       .  A
C1208      C1213   1.405       .  A
C1208      H1218   1.085       .  S
C1209      C1210   1.417       .  A
C1209      C1214   1.493       .  S
C1210      C1215   1.518       .  S
C1210      C1211   1.415       .  A
C1211      C1212   1.406       .  A
C1211      H1216   1.083       .  S
C1212      C1213   1.426       .  A
C1213      C1217   1.522       .  S
C1214      C1219   1.417       .  A
C1214      C1223   1.404       .  A
C1215      F1231   1.382       .  S
C1215      F1232   1.382       .  S
C1215      F1233   1.384       .  S
C1217      F1228   1.384       .  S
C1217      F1229   1.383       .  S
C1217      F1230   1.380       .  S
C1219      C1224   1.520       .  S
C1219      C1220   1.409       .  A
C1220      C1221   1.406       .  A
C1220      H1225   1.083       .  S
C1221      C1222   1.420       .  A
C1222      C1226   1.516       .  S
C1222      C1223   1.411       .  A
C1223      H1227   1.085       .  S
C1224      F1237   1.385       .  S
C1224      F1238   1.382       .  S
C1224      F1239   1.381       .  S
C1226      F1234   1.385       .  S
C1226      F1235   1.383       .  S
C1226      F1236   1.382       .  S
C1240      C1241   1.401       .  A
C1240      C1245   1.415       .  A
C1240      H1250   1.083       .  S
C1241      C1242   1.415       .  A
C1241      C1246   1.503       .  S
C1242      C1247   1.520       .  S
C1242      C1243   1.413       .  A
C1243      C1244   1.416       .  A
C1243      H1248   1.082       .  S
C1244      C1245   1.433       .  A
C1245      C1249   1.518       .  S
C1246      C1251   1.419       .  A
C1246      C1255   1.403       .  A
C1247      F1263   1.381       .  S
C1247      F1264   1.383       .  S
C1247      F1265   1.384       .  S
C1249      F1260   1.385       .  S
C1249      F1261   1.381       .  S
C1249      F1262   1.374       .  S
C1251      C1256   1.519       .  S
C1251      C1252   1.412       .  A
C1252      C1253   1.409       .  A
C1252      H1257   1.082       .  S
C1253      C1254   1.428       .  A
C1254      C1258   1.521       .  S
C1254      C1255   1.411       .  A
C1255      H1259   1.083       .  S
C1256      F1269   1.385       .  S
C1256      F1270   1.381       .  S
C1256      F1271   1.383       .  S
C1258      F1266   1.383       .  S
C1258      F1267   1.379       .  S
C1258      F1268   1.383       .  S
C1272      C1273   1.386       .  A
C1272      C1277   1.405       .  A
C1272      H1282   1.083       .  S
C1273      C1274   1.413       .  A
C1273      C1278   1.495       .  S
C1274      C1279   1.516       .  S
C1274      C1275   1.420       .  A
C1275      C1276   1.412       .  A
C1275      H1280   1.071       .  S
C1276      C1277   1.455       .  A
C1277      C1281   1.541       .  S
C1278      C1283   1.421       .  A
C1278      C1287   1.405       .  A
C1279      F1295   1.383       .  S
C1279      F1296   1.382       .  S
C1279      F1297   1.384       .  S
C1281      F1292   1.373       .  S
C1281      F1293   1.385       .  S
C1281      F1294   1.377       .  S
C1283      C1288   1.520       .  S
C1283      C1284   1.410       .  A
C1284      C1285   1.401       .  A
C1284      H1289   1.083       .  S
C1285      C1286   1.415       .  A
C1286      C1290   1.516       .  S
C1286      C1287   1.411       .  A
C1287      H1291   1.083       .  S
C1288      F1301   1.385       .  S
C1288      F1302   1.382       .  S
C1288      F1303   1.382       .  S
C1290      F1298   1.385       .  S
C1290      F1299   1.382       .  S
C1290      F1300   1.383       .  S
