geometry optimzed in LAMMPS
_audit_creation_date              2020-11-30 
_audit_creation_method            'lammps2cif' 
_symmetry_space_group_name_H-M    'P1' 
_symmetry_Int_Tables_number       1 
_symmetry_cell_setting            triclinic 
loop_ 
_symmetry_equiv_pos_as_xyz 
  x,y,z 
_cell_length_a                    42.251669953009156 
_cell_length_b                    42.00977406683615 
_cell_length_c                    41.50983273077151 
_cell_angle_alpha                 90.04555789319447 
_cell_angle_beta                  89.96050423095407 
_cell_angle_gamma                 89.78881285707162 
loop_ 
_atom_site_label 
_atom_site_type_symbol 
_atom_site_fract_x 
_atom_site_fract_y 
_atom_site_fract_z 
_atom_site_charge 
C1          C  0.36707864  0.36660407  0.01088416     0.03330
C2          C  0.37550258  0.33399254  0.50516789    -0.12820
C3          C  0.35252845  0.31315929  0.49294781     0.00830
C4          C  0.32411029  0.32707087  0.48283935    -0.11340
C5          C  0.31212189  0.35362056  0.99891910     0.03330
C6          C  0.33420564  0.37420711  0.01290554    -0.10760
H7          H  0.39916131  0.32499387  0.50906353     0.08920
H8          H  0.30889964  0.31387877  0.46747588     0.06450
H9          H  0.32606634  0.39591876  0.02428351     0.06300
C10         C  0.36519956  0.22252628  0.98278898     0.03330
C11         C  0.37420234  0.25531179  0.98544273    -0.12820
C12         C  0.35199562  0.27746834  0.99695668     0.00830
C13         C  0.32398331  0.26498410  0.00916802    -0.11340
C14         C  0.31083166  0.23746051  0.99622648     0.03330
C15         C  0.33214707  0.21514381  0.98335213    -0.10760
H16         H  0.39791325  0.26334340  0.98019688     0.08920
H17         H  0.30956064  0.27976009  0.02371556     0.06450
H18         H  0.32347237  0.19239147  0.97500609     0.06300
C19         C  0.22296236  0.22364228  0.01394952     0.03330
C20         C  0.25480281  0.21459355  0.00657583    -0.12820
C21         C  0.27526998  0.23747158  0.99347127     0.00830
C22         C  0.26151896  0.26654465  0.98473076    -0.11340
C23         C  0.23611512  0.27875953  0.00230613     0.03390
C24         C  0.21575250  0.25668839  0.01656175    -0.10760
H25         H  0.26315517  0.19043651  0.00978103     0.08920
H26         H  0.27413193  0.28203066  0.96915756     0.06450
H27         H  0.19419656  0.26482551  0.02808045     0.06300
C28         C  0.22326492  0.36698722  0.98884565     0.03330
C29         C  0.25598865  0.37484199  0.99020347    -0.12820
C30         C  0.27722141  0.35397182  0.00525379     0.00830
C31         C  0.26442950  0.32693034  0.01991122    -0.11340
C32         C  0.23614824  0.31388479  0.00840132     0.03330
C33         C  0.21428734  0.33489331  0.99455212    -0.10760
H34         H  0.26451228  0.39720308  0.98062094     0.08920
H35         H  0.27864816  0.31346416  0.03626943     0.06450
H36         H  0.19074385  0.32635312  0.98950783     0.06300
C37         C  0.36854267  0.03658757  0.32145316     0.03330
C38         C  0.33632964  0.03788524  0.33125132    -0.12820
C39         C  0.31392733  0.05150699  0.31043433     0.00830
C40         C  0.32541885  0.06612784  0.28252024    -0.11340
C41         C  0.35357314  0.05537380  0.26830311     0.03330
C42         C  0.37612578  0.04160205  0.28857940    -0.10760
H43         H  0.32900571  0.02972062  0.35481191     0.08920
H44         H  0.31026010  0.08170529  0.26924428     0.06450
H45         H  0.39936957  0.03559975  0.27930837     0.06300
C46         C  0.22422357  0.05700746  0.32213029     0.03330
C47         C  0.25689886  0.05881694  0.33034211    -0.12820
C48         C  0.27938122  0.04366543  0.31076785     0.00830
C49         C  0.26801131  0.02589099  0.28476515    -0.11340
C50         C  0.23894905  0.03380318  0.27053442     0.03330
C51         C  0.21593351  0.04753916  0.29037881    -0.10760
H52         H  0.26447358  0.07086277  0.35207190     0.08920
H53         H  0.28396431  0.01056791  0.27211095     0.06450
H54         H  0.19215032  0.04984313  0.28119648     0.06300
C55         C  0.22445389  0.02626309  0.17923479     0.03330
C56         C  0.21792667  0.02377810  0.21285222    -0.12820
C57         C  0.23897712  0.03759669  0.23471198     0.00830
C58         C  0.26428441  0.05426009  0.22176763    -0.11340
C59         C  0.27747019  0.04507247  0.19241123     0.03330
C60         C  0.25641058  0.03264271  0.16957292    -0.10760
H61         H  0.19643157  0.01284669  0.22160436     0.08920
H62         H  0.27743398  0.06939819  0.23709783     0.06450
H63         H  0.26444401  0.02961982  0.14504262     0.06300
C64         C  0.36519294  0.06398081  0.17709755     0.03330
C65         C  0.37321224  0.06497177  0.21040508    -0.12820
C66         C  0.35307738  0.05052188  0.23267025     0.00830
C67         C  0.32732618  0.03401868  0.22038687    -0.11340
C68         C  0.31309526  0.04379520  0.19167016     0.03330
C69         C  0.33318906  0.05714752  0.16835403    -0.10760
H70         H  0.39544657  0.07498871  0.21841755     0.08920
H71         H  0.31457981  0.01867023  0.23600911     0.06450
H72         H  0.32452671  0.06049921  0.14411247     0.06300
C73         C  0.04777868  0.22185078  0.31816386     0.03330
C74         C  0.03442259  0.25147183  0.32722367    -0.12820
C75         C  0.03976078  0.27824600  0.30820936     0.00830
C76         C  0.05986262  0.27540271  0.28164476    -0.11340
C77         C  0.06811639  0.24564360  0.26826753     0.03330
C78         C  0.06268478  0.21861589  0.28760737    -0.10760
H79         H  0.02055036  0.25378416  0.34905997     0.08920
H80         H  0.06535228  0.29728750  0.26949930     0.06450
H81         H  0.07000939  0.19531647  0.27923001     0.06300
C82         C  0.03534899  0.36465269  0.32184178     0.03330
C83         C  0.03417369  0.33253760  0.33219815    -0.12820
C84         C  0.02244479  0.30904530  0.31158066     0.00830
C85         C  0.00638473  0.31916936  0.28388057    -0.11340
C86         C  0.01676157  0.34718862  0.26855431     0.03330
C87         C  0.02940695  0.37105841  0.28872294    -0.10760
H88         H  0.04272358  0.32523796  0.35552942     0.08920
H89         H  0.99398949  0.30122033  0.27015620     0.06450
H90         H  0.03602720  0.39384001  0.27865129     0.06300
C91         C  0.05926253  0.22592866  0.17936333     0.03330
C92         C  0.06617536  0.21933076  0.21227470    -0.12820
C93         C  0.07648629  0.24428179  0.23272541     0.00830
C94         C  0.08513519  0.27284071  0.21732812    -0.11340
C95         C  0.06806013  0.28205533  0.18994005     0.03330
C96         C  0.05626719  0.25810747  0.17006817    -0.10760
H97         H  0.06257516  0.19570359  0.22188682     0.08920
H98         H  0.09675869  0.29141509  0.23090756     0.06450
H99         H  0.04374269  0.26446271  0.14821988     0.06300
C100        C  0.04470012  0.36917150  0.18291379     0.03330
C101        C  0.03041375  0.37297049  0.21366279    -0.12820
C102        C  0.02419358  0.34594771  0.23290304     0.00830
C103        C  0.03102814  0.31601669  0.21927510    -0.11340
C104        C  0.05089948  0.31274237  0.19269586     0.03330
C105        C  0.05691295  0.33925000  0.17364403    -0.10760
H106        H  0.02354881  0.39643529  0.22196501     0.08920
H107        H  0.02519174  0.29425130  0.23152038     0.06450
H108        H  0.07066103  0.33670285  0.15173782     0.06300
O109        O  0.45622132  0.49308313  0.00311230    -0.86280
O110        O  0.13516357  0.49415660  0.99662702    -0.86450
O111        O  0.04601859  0.45500192  0.44754623    -0.88120
O112        O  0.04727266  0.45614228  0.05416232    -0.86870
O113        O  0.04578633  0.49506786  0.09306002    -0.86460
O114        O  0.04691118  0.49392386  0.40872293    -0.87840
O115        O  0.09759989  0.45483893  0.99712722    -0.86310
O116        O  0.49469124  0.45446629  0.00212911    -0.85900
Zr117      Zr  0.04599663  0.48095449  0.00058799     2.84310
O118        O  0.07741455  0.01337785  0.03331410    -1.07880
O119        O  0.01405439  0.01299165  0.46781839    -1.08600
C120        C  0.46548765  0.46366387  0.00350129     1.06820
C121        C  0.12651320  0.46469446  0.99550957     1.06770
C122        C  0.04642424  0.46456736  0.41787673     1.09750
C123        C  0.04665882  0.46573353  0.08386086     1.07530
H124        H  0.09123212  0.00051097  0.45407432     0.33090
O125        O  0.07786899  0.01325940  0.46790095    -1.28830
H126        H  0.00041754  0.00032740  0.04700003     0.32760
O127        O  0.01358062  0.01324906  0.03324041    -1.30510
O128        O  0.13517766  0.09697444  0.00522331    -0.86280
O129        O  0.45555189  0.09710308  0.99613931    -0.87770
O130        O  0.09757562  0.04985994  0.40934718    -0.86350
O131        O  0.09707508  0.04268956  0.09174907    -0.86400
O132        O  0.49342344  0.04965673  0.09106606    -0.86120
O133        O  0.49458548  0.04308798  0.40928383    -0.85920
O134        O  0.04581009  0.13558575  0.44667453    -0.86290
O135        O  0.04378469  0.13587910  0.05293502    -0.85760
O136        O  0.04515321  0.09632238  0.40802026    -0.86820
O137        O  0.04529474  0.09758006  0.09235556    -0.85980
O138        O  0.13498320  0.05096988  0.44923301    -0.86380
O139        O  0.45593581  0.04022129  0.44811134    -0.86100
O140        O  0.45527783  0.05101339  0.05179986    -0.85750
O141        O  0.13506784  0.04092274  0.05244849    -0.86160
O142        O  0.09694533  0.13580238  0.00271325    -0.86450
O143        O  0.49339240  0.13616805  0.99688575    -0.87790
Zr144      Zr  0.10884731  0.04574847  0.00081499     2.83100
Zr145      Zr  0.48179295  0.04521274  0.00014098     2.83500
Zr146      Zr  0.04599183  0.04539060  0.43552152     2.84090
Zr147      Zr  0.04527511  0.04600935  0.06544431     2.83360
Zr148      Zr  0.04506554  0.11017356  0.99997221     2.84220
O149        O  0.01329418  0.07788838  0.03249876    -1.08360
O150        O  0.07749958  0.07802364  0.46785555    -1.07860
C151        C  0.12603701  0.12633449  0.00541537     1.06800
C152        C  0.46440312  0.12656213  0.99510332     1.09420
C153        C  0.12643251  0.05192055  0.41945710     1.06970
C154        C  0.12613225  0.04014521  0.08212632     1.07330
C155        C  0.46441462  0.05199212  0.08144667     1.06910
C156        C  0.46553898  0.04060937  0.41860663     1.06470
C157        C  0.04545285  0.12565400  0.41712758     1.06890
C158        C  0.04458444  0.12681296  0.08275437     1.06400
H159        H  0.00026411  0.09027933  0.45351552     0.33080
O160        O  0.01345283  0.07749736  0.46744761    -1.29460
H161        H  0.09006811  0.09119155  0.04702584     0.33100
O162        O  0.07701312  0.07824758  0.03319034    -1.30840
C163        C  0.04487008  0.39509951  0.15893257    -0.05260
C164        C  0.02825323  0.39036089  0.13014351    -0.32690
C165        C  0.02902064  0.41299006  0.10558475     0.36560
C166        C  0.04633892  0.44124772  0.10952407    -0.05620
C167        C  0.06272392  0.44627565  0.13863328    -0.32590
C168        C  0.06219593  0.42329045  0.16322622     0.36470
H169        H  0.01468073  0.36878639  0.12661775     0.16840
O170        O  0.51182964  0.40768814  0.07819328    -0.60090
H171        H  0.07640147  0.46778021  0.14206897     0.16850
O172        O  0.07981393  0.42785050  0.19055724    -0.60180
H173        H  0.06615533  0.44070981  0.20503764     0.43850
H174        H  0.52529081  0.39345956  0.06485581     0.43800
C175        C  0.04634804  0.15209308  0.10768202    -0.05260
C176        C  0.06235551  0.18027848  0.10025480    -0.32690
C177        C  0.06650577  0.20410687  0.12332542     0.36560
C178        C  0.05411108  0.20047670  0.15478228    -0.05620
C179        C  0.03770366  0.17233998  0.16223739    -0.32590
C180        C  0.03396497  0.14817237  0.13905475     0.36470
H181        H  0.07276970  0.18352382  0.07661663     0.16840
O182        O  0.08457370  0.23004865  0.11539622    -0.60090
H183        H  0.02759324  0.16906525  0.18597325     0.16850
O184        O  0.01737642  0.12129236  0.14702646    -0.60180
H185        H  0.03269286  0.10753173  0.15864410     0.43850
H186        H  0.07156201  0.24262174  0.10007785     0.43800
C187        C  0.04213003  0.39121150  0.34498164    -0.05260
C188        C  0.02602214  0.42033282  0.34095646    -0.32690
C189        C  0.02822231  0.44469673  0.36383573     0.36560
C190        C  0.04593736  0.44005574  0.39218608    -0.05620
C191        C  0.06314601  0.41168326  0.39584701    -0.32590
C192        C  0.06187905  0.38758950  0.37235492     0.36470
H193        H  0.01054895  0.42397361  0.32048936     0.16840
O194        O  0.01125061  0.47221211  0.35915568    -0.60090
H195        H  0.07795496  0.40828212  0.41688146     0.16850
O196        O  0.08120818  0.36146561  0.37567753    -0.60180
H197        H  0.07433218  0.35076986  0.39579855     0.43850
H198        H  0.02465523  0.48552485  0.34494286     0.43800
C199        C  0.04554482  0.14960303  0.39136346    -0.05260
C200        C  0.07380246  0.15608794  0.37500682    -0.32690
C201        C  0.07456164  0.17870876  0.35025677     0.36560
C202        C  0.04663426  0.19491137  0.34124043    -0.05620
C203        C  0.01812302  0.18742875  0.35692565    -0.32590
C204        C  0.01744261  0.16492273  0.38190394     0.36470
H205        H  0.09545424  0.14393288  0.38183363     0.16840
O206        O  0.10292375  0.18554217  0.33578137    -0.60090
H207        H  0.49638211  0.19932077  0.35000374     0.16850
O208        O  0.48921514  0.15707890  0.39621451    -0.60180
H209        H  0.47967047  0.17741807  0.40356396     0.43850
H210        H  0.11179006  0.20352082  0.34832343     0.43800
C211        C  0.39113911  0.06419653  0.15280889    -0.05260
C212        C  0.41903208  0.04714117  0.15998475    -0.32690
C213        C  0.44314785  0.04346972  0.13730383     0.36560
C214        C  0.43964378  0.05644327  0.10628833    -0.05620
C215        C  0.41210472  0.07399373  0.09907009    -0.32590
C216        C  0.38796716  0.07798894  0.12203794     0.36470
H217        H  0.42185174  0.03549265  0.18308751     0.16840
O218        O  0.46921921  0.02552970  0.14518770    -0.60090
H219        H  0.40932312  0.08485925  0.07556659     0.16850
O220        O  0.36206340  0.09634054  0.11459061    -0.60180
H221        H  0.35064968  0.08453373  0.09748667     0.43850
H222        H  0.48328898  0.04014278  0.15725921     0.43800
C223        C  0.19801243  0.02643613  0.15526182    -0.05260
C224        C  0.20382759  0.01772433  0.12313494    -0.32690
C225        C  0.18127798  0.02311798  0.09909605     0.36560
C226        C  0.15110359  0.03549662  0.10695695    -0.05620
C227        C  0.14479524  0.04329232  0.13914721    -0.32590
C228        C  0.16791908  0.03956168  0.16300234     0.36470
H229        H  0.22629214  0.00740004  0.11613892     0.16840
O230        O  0.18923791  0.01616049  0.06791784    -0.60090
H231        H  0.12215256  0.05354736  0.14582788     0.16850
O232        O  0.16150945  0.05133092  0.19315961    -0.60180
H233        H  0.14608089  0.03632230  0.20275734     0.43850
H234        H  0.20054867  0.03523943  0.05990746     0.43800
C235        C  0.15186489  0.05565455  0.39522446    -0.05260
C236        C  0.14524861  0.06959837  0.36520525    -0.32690
C237        C  0.16884386  0.07229668  0.34152625     0.36560
C238        C  0.19965210  0.06054138  0.34763535    -0.05620
C239        C  0.20632267  0.04781209  0.37820736    -0.32590
C240        C  0.18305668  0.04563456  0.40187815     0.36470
H241        H  0.12170951  0.07856204  0.36004557     0.16840
O242        O  0.16183810  0.08745592  0.31311438    -0.60090
H243        H  0.22947156  0.03800039  0.38355356     0.16850
O244        O  0.19078240  0.03181062  0.43077997    -0.60180
H245        H  0.20065437  0.04902054  0.44365613     0.43850
H246        H  0.14525660  0.07438914  0.30261288     0.43800
C247        C  0.39438359  0.03480299  0.34539775    -0.05260
C248        C  0.41837571  0.05783881  0.34368631    -0.32690
C249        C  0.44177402  0.05964092  0.36724632     0.36560
C250        C  0.44134819  0.03840968  0.39333911    -0.05620
C251        C  0.41759565  0.01516233  0.39517511    -0.32590
C252        C  0.39432952  0.01305016  0.37121025     0.36470
H253        H  0.41838922  0.07533256  0.32450856     0.16840
O254        O  0.46374362  0.08357850  0.36571130    -0.60090
H255        H  0.41728619  0.49846837  0.41506878     0.16850
O256        O  0.37181684  0.48971521  0.37323788    -0.60180
H257        H  0.38003590  0.47195712  0.35984145     0.43850
H258        H  0.48033900  0.07568989  0.35077443     0.43800
C259        C  0.19913921  0.39281651  0.98610637    -0.05260
C260        C  0.20510422  0.42160737  0.00223876    -0.32690
C261        C  0.18210481  0.44532494  0.00453366     0.36560
C262        C  0.15174599  0.44041809  0.99166094    -0.05620
C263        C  0.14581049  0.41218155  0.47454564    -0.32590
C264        C  0.16929991  0.38858709  0.47136608     0.36470
H265        H  0.22745851  0.42552735  0.01434350     0.16840
O266        O  0.18918211  0.47260046  0.02100142    -0.60090
H267        H  0.12297441  0.40847907  0.46331358     0.16850
O268        O  0.16329486  0.36227297  0.45276574    -0.60180
H269        H  0.14569533  0.35095257  0.46362083     0.43850
H270        H  0.20050870  0.48623000  0.00529607     0.43800
C271        C  0.15069603  0.15114687  0.00930618    -0.05260
C272        C  0.14471266  0.18196988  0.49795637    -0.32690
C273        C  0.16748352  0.20588557  0.50043990     0.36560
C274        C  0.19710289  0.19954266  0.01511209    -0.05620
C275        C  0.20279151  0.16883520  0.02728295    -0.32590
C276        C  0.18010274  0.14471114  0.02422659     0.36470
H277        H  0.12254643  0.18745392  0.48603234     0.16840
O278        O  0.16131780  0.23465416  0.48606579    -0.60090
H279        H  0.22505773  0.16326870  0.03891105     0.16850
O280        O  0.18674100  0.11514877  0.03657281    -0.60180
H281        H  0.19957493  0.10429544  0.01979538     0.43850
H282        H  0.14566236  0.24538372  0.50025147     0.43800
C283        C  0.43922594  0.15103872  0.99101207    -0.05260
C284        C  0.40862739  0.14487367  0.00238649    -0.32690
C285        C  0.38425767  0.16732279  0.99906988     0.36560
C286        C  0.38973688  0.19656427  0.98292395    -0.05620
C287        C  0.42033417  0.20220291  0.47071768    -0.32590
C288        C  0.44502299  0.18027066  0.47541737     0.36470
H289        H  0.40371931  0.12288621  0.01505623     0.16840
O290        O  0.35594859  0.16126819  0.01402844    -0.60090
H291        H  0.42557263  0.22395640  0.45789577     0.16850
O292        O  0.47465120  0.18756664  0.46420528    -0.60180
H293        H  0.48422642  0.20113651  0.48113210     0.43850
H294        H  0.34576469  0.14437428  0.00097672     0.43800
C295        C  0.39165015  0.39239997  0.01195847    -0.05260
C296        C  0.42308771  0.38521652  0.02056409    -0.32690
C297        C  0.44739802  0.40749943  0.01669075     0.36560
C298        C  0.44056918  0.43873147  0.00617741    -0.05620
C299        C  0.40917011  0.44629561  0.49829738    -0.32590
C300        C  0.38507619  0.42355791  0.50038140     0.36470
H301        H  0.42938341  0.36197618  0.02973898     0.16840
O302        O  0.47780241  0.39823355  0.02326521    -0.60090
H303        H  0.40326422  0.46976725  0.48925453     0.16850
O304        O  0.35580300  0.43157757  0.48855192    -0.60180
H305        H  0.34673260  0.44681398  0.50436234     0.43850
H306        H  0.48550918  0.38788287  0.00324251     0.43800
C307        C  0.36707972  0.36660519  0.51087814     0.03330
C308        C  0.37550098  0.33399110  0.00517432    -0.12820
C309        C  0.35252646  0.31315820  0.99295414     0.00830
C310        C  0.32410901  0.32707053  0.98284496    -0.11340
C311        C  0.31212295  0.35362073  0.49891377     0.03330
C312        C  0.33420666  0.37420792  0.51289945    -0.10760
H313        H  0.39915951  0.32499199  0.00907014     0.08920
H314        H  0.30889837  0.31387894  0.96748116     0.06450
H315        H  0.32606727  0.39591968  0.52427716     0.06300
C316        C  0.36520138  0.22252708  0.48278547     0.03330
C317        C  0.37420445  0.25531268  0.48543736    -0.12820
C318        C  0.35199832  0.27746966  0.49695184     0.00830
C319        C  0.32398697  0.26498579  0.50916564    -0.11340
C320        C  0.31083467  0.23746178  0.49622580     0.03330
C321        C  0.33214902  0.21514490  0.48335044    -0.10760
H322        H  0.39791507  0.26334404  0.48018978     0.08920
H323        H  0.30956524  0.27976228  0.52371367     0.06450
H324        H  0.32347366  0.19239246  0.47500539     0.06300
C325        C  0.22296718  0.22364029  0.51395330     0.03330
C326        C  0.25480771  0.21459319  0.50657885    -0.12820
C327        C  0.27527310  0.23747204  0.49347328     0.00830
C328        C  0.26152074  0.26654449  0.48473319    -0.11340
C329        C  0.23611707  0.27875845  0.50230924     0.03390
C330        C  0.21575543  0.25668624  0.51656516    -0.10760
H331        H  0.26316127  0.19043652  0.50978380     0.08920
H332        H  0.27413278  0.28203114  0.46915989     0.06450
H333        H  0.19419883  0.26482219  0.52808340     0.06300
C334        C  0.22326486  0.36698534  0.48884521     0.03330
C335        C  0.25598870  0.37484020  0.49019990    -0.12820
C336        C  0.27722265  0.35397119  0.50525006     0.00830
C337        C  0.26443191  0.32693054  0.51991027    -0.11340
C338        C  0.23614964  0.31388406  0.50840362     0.03330
C339        C  0.21428771  0.33489175  0.49455469    -0.10760
H340        H  0.26451161  0.39720061  0.48061508     0.08920
H341        H  0.27865186  0.31346537  0.53626817     0.06450
H342        H  0.19074392  0.32635114  0.48951269     0.06300
C343        C  0.36854163  0.03659051  0.82145621     0.03330
C344        C  0.33632869  0.03788808  0.83125479    -0.12820
C345        C  0.31392595  0.05150959  0.81043804     0.00830
C346        C  0.32541724  0.06613017  0.78252348    -0.11340
C347        C  0.35357201  0.05537683  0.76830637     0.03330
C348        C  0.37612458  0.04160514  0.78858254    -0.10760
H349        H  0.32900515  0.02972328  0.85481544     0.08920
H350        H  0.31025812  0.08170711  0.76924739     0.06450
H351        H  0.39936837  0.03560295  0.77931143     0.06300
C352        C  0.22422110  0.05700660  0.82213364     0.03330
C353        C  0.25689634  0.05881668  0.83034639    -0.12820
C354        C  0.27937983  0.04366696  0.81077166     0.00830
C355        C  0.26801088  0.02589256  0.78476862    -0.11340
C356        C  0.23894871  0.03380397  0.77053750     0.03330
C357        C  0.21593221  0.04753879  0.79038165    -0.10760
H358        H  0.26447016  0.07086210  0.85207672     0.08920
H359        H  0.28396457  0.01057021  0.77211447     0.06450
H360        H  0.19214919  0.04984224  0.78119874     0.06300
C361        C  0.22445606  0.02625901  0.67923816     0.03330
C362        C  0.21792789  0.02377584  0.71285547    -0.12820
C363        C  0.23897716  0.03759659  0.73471496     0.00830
C364        C  0.26428422  0.05426027  0.72177026    -0.11340
C365        C  0.27747076  0.04507190  0.69241432     0.03330
C366        C  0.25641237  0.03263965  0.66957649    -0.10760
H367        H  0.19643269  0.01284449  0.72160750     0.08920
H368        H  0.27743306  0.06939951  0.73709998     0.06450
H369        H  0.26444623  0.02961583  0.64504642     0.06300
C370        C  0.36519301  0.06398158  0.67710021     0.03330
C371        C  0.37321214  0.06497356  0.71040789    -0.12820
C372        C  0.35307690  0.05052449  0.73267351     0.00830
C373        C  0.32732649  0.03402014  0.72039039    -0.11340
C374        C  0.31309567  0.04379560  0.69167347     0.03330
C375        C  0.33318922  0.05714758  0.66835696    -0.10760
H376        H  0.39544634  0.07499092  0.71842018     0.08920
H377        H  0.31458042  0.01867165  0.73601286     0.06450
H378        H  0.32452676  0.06049837  0.64411531     0.06300
C379        C  0.04778061  0.22185048  0.81816040     0.03330
C380        C  0.03442588  0.25147168  0.82722110    -0.12820
C381        C  0.03976437  0.27824586  0.80820726     0.00830
C382        C  0.05986495  0.27540231  0.78164162    -0.11340
C383        C  0.06811771  0.24564296  0.76826394     0.03330
C384        C  0.06268640  0.21861531  0.78760393    -0.10760
H385        H  0.02055398  0.25378391  0.84905765     0.08920
H386        H  0.06535432  0.29728708  0.76949598     0.06450
H387        H  0.07001033  0.19531570  0.77922649     0.06300
C388        C  0.03535304  0.36465234  0.82184157     0.03330
C389        C  0.03417825  0.33253700  0.83219739    -0.12820
C390        C  0.02244866  0.30904506  0.81157995     0.00830
C391        C  0.00638701  0.31916943  0.78388114    -0.11340
C392        C  0.01676368  0.34718837  0.76855446     0.03330
C393        C  0.02941025  0.37105805  0.78872269    -0.10760
H394        H  0.04272857  0.32523669  0.85552820     0.08920
H395        H  0.99399061  0.30122067  0.77015751     0.06450
H396        H  0.03603048  0.39383950  0.77865069     0.06300
C397        C  0.05925947  0.22592670  0.67936041     0.03330
C398        C  0.06617426  0.21932923  0.71227146    -0.12820
C399        C  0.07648562  0.24428078  0.73272134     0.00830
C400        C  0.08513295  0.27283965  0.71732319    -0.11340
C401        C  0.06805562  0.28205365  0.68993645     0.03330
C402        C  0.05626204  0.25810538  0.67006540    -0.10760
H403        H  0.06257565  0.19570193  0.72188384     0.08920
H404        H  0.09675715  0.29141435  0.73090153     0.06450
H405        H  0.04373632  0.26446005  0.64821766     0.06300
C406        C  0.04469716  0.36916997  0.68291201     0.03330
C407        C  0.03041324  0.37296952  0.71366207    -0.12820
C408        C  0.02419360  0.34594702  0.73290275     0.00830
C409        C  0.03102619  0.31601569  0.71927424    -0.11340
C410        C  0.05089517  0.31274068  0.69269321     0.03330
C411        C  0.05690818  0.33924813  0.67364115    -0.10760
H412        H  0.02354978  0.39643457  0.72196483     0.08920
H413        H  0.02519036  0.29425045  0.73152007     0.06450
H414        H  0.07065478  0.33670065  0.65173400     0.06300
O415        O  0.45622331  0.49308325  0.50311209    -0.86280
O416        O  0.13516364  0.49415559  0.49662640    -0.86450
O417        O  0.04601841  0.45500265  0.94754719    -0.88120
O418        O  0.04727229  0.45614021  0.55416130    -0.86870
O419        O  0.04578530  0.49506554  0.59305924    -0.86460
O420        O  0.04691235  0.49392414  0.90872353    -0.87840
O421        O  0.09760038  0.45483763  0.49712642    -0.86310
O422        O  0.49469315  0.45446629  0.50212909    -0.85900
Zr423      Zr  0.04599707  0.48095270  0.50058729     2.84310
O424        O  0.07742162  0.01337137  0.53331363    -1.07880
O425        O  0.01404639  0.01299832  0.96781951    -1.08600
C426        C  0.46548953  0.46366402  0.50350077     1.06820
C427        C  0.12651359  0.46469336  0.49550865     1.06770
C428        C  0.04642499  0.46456769  0.91787751     1.09750
C429        C  0.04665787  0.46573137  0.58385980     1.07530
H430        H  0.09122552  0.00051814  0.95407530     0.33090
O431        O  0.07786180  0.01326625  0.96790161    -1.28830
H432        H  0.00042451  0.00032141  0.54699972     0.32760
O433        O  0.01358827  0.01324261  0.53324034    -1.30510
O434        O  0.13518877  0.09696599  0.50522412    -0.86280
O435        O  0.45555082  0.09710211  0.49613840    -0.87770
O436        O  0.09756849  0.04986659  0.90934788    -0.86350
O437        O  0.09708193  0.04268298  0.59174834    -0.86400
O438        O  0.49342229  0.04965646  0.59106650    -0.86120
O439        O  0.49458658  0.04308999  0.90928397    -0.85920
O440        O  0.04580177  0.13559165  0.94667463    -0.86290
O441        O  0.04379424  0.13587334  0.55293358    -0.85760
O442        O  0.04514525  0.09632781  0.90802084    -0.86820
O443        O  0.04530179  0.09757480  0.59235460    -0.85980
O444        O  0.13497589  0.05097564  0.94923383    -0.86380
O445        O  0.45593712  0.04022250  0.94811159    -0.86100
O446        O  0.45527655  0.05101272  0.55180041    -0.85750
O447        O  0.13507538  0.04091429  0.55244840    -0.86160
O448        O  0.09695645  0.13579382  0.50271242    -0.86450
O449        O  0.49339162  0.13616682  0.49688447    -0.87790
Zr450      Zr  0.10885540  0.04574129  0.50081452     2.83100
Zr451      Zr  0.48179157  0.04521163  0.50014104     2.83500
Zr452      Zr  0.04598428  0.04539677  0.93552246     2.84090
Zr453      Zr  0.04528245  0.04600367  0.56544374     2.83360
Zr454      Zr  0.04507547  0.11016693  0.49997153     2.84220
O455        O  0.01330298  0.07788232  0.53249739    -1.08360
O456        O  0.07749075  0.07803071  0.96785656    -1.07860
C457        C  0.12604814  0.12632611  0.50541534     1.06800
C458        C  0.46440236  0.12656107  0.49510196     1.09420
C459        C  0.12642554  0.05192607  0.91945783     1.06970
C460        C  0.12613909  0.04013763  0.58212608     1.07330
C461        C  0.46441341  0.05199168  0.58144728     1.06910
C462        C  0.46554017  0.04061090  0.91860690     1.06470
C463        C  0.04544513  0.12565944  0.91712780     1.06890
C464        C  0.04459219  0.12680764  0.58275305     1.06400
H465        H  0.00025518  0.09028512  0.95351563     0.33080
O466        O  0.01344390  0.07750342  0.96744799    -1.29460
H467        H  0.09007717  0.09118465  0.54702569     0.33100
O468        O  0.07702202  0.07824087  0.53319016    -1.30840
C469        C  0.04486705  0.39509804  0.65893115    -0.05260
C470        C  0.02824906  0.39036020  0.63014260    -0.32690
C471        C  0.02901702  0.41298924  0.60558379     0.36560
C472        C  0.04633721  0.44124572  0.60952273    -0.05620
C473        C  0.06272309  0.44627301  0.63863148    -0.32590
C474        C  0.06219440  0.42328804  0.66322445     0.36470
H475        H  0.01467536  0.36878640  0.62661727     0.16840
O476        O  0.51183223  0.40768873  0.57819426    -0.60090
H477        H  0.07640186  0.46777685  0.64206675     0.16850
O478        O  0.07981320  0.42784726  0.69055509    -0.60180
H479        H  0.06615577  0.44070779  0.70503553     0.43850
H480        H  0.52529297  0.39346028  0.56485618     0.43800
C481        C  0.04635338  0.15208837  0.60768036    -0.05260
C482        C  0.06235823  0.18027525  0.60025288    -0.32690
C483        C  0.06650498  0.20410491  0.62332284     0.36560
C484        C  0.05410986  0.20047426  0.65477945    -0.05620
C485        C  0.03770477  0.17233621  0.66223471    -0.32590
C486        C  0.03396909  0.14816761  0.63905258     0.36470
H487        H  0.07277285  0.18352106  0.57661497     0.16840
O488        O  0.08457005  0.23004859  0.61539328    -0.60090
H489        H  0.02759393  0.16906118  0.68597034     0.16850
O490        O  0.01738212  0.12128660  0.64702422    -0.60180
H491        H  0.03269900  0.10752740  0.65864298     0.43850
H492        H  0.07155681  0.24262017  0.60007501     0.43800
C493        C  0.04213379  0.39121121  0.84498193    -0.05260
C494        C  0.02602809  0.42033358  0.84095504    -0.32690
C495        C  0.02822747  0.44469759  0.86383438     0.36560
C496        C  0.04593907  0.44005574  0.89218686    -0.05620
C497        C  0.06314564  0.41168223  0.89584966    -0.32590
C498        C  0.06187989  0.38758844  0.87235745     0.36470
H499        H  0.01055710  0.42397533  0.82048641     0.16840
O500        O  0.01125831  0.47221415  0.85915195    -0.60090
H501        H  0.07795226  0.40828033  0.91688568     0.16850
O502        O  0.08120769  0.36146385  0.87568230    -0.60180
H503        H  0.07432936  0.35076861  0.89580277     0.43850
H504        H  0.02466551  0.48552566  0.84494046     0.43800
C505        C  0.04553942  0.14960753  0.89136299    -0.05260
C506        C  0.07379931  0.15609282  0.87501044    -0.32690
C507        C  0.07456090  0.17871101  0.85025813     0.36560
C508        C  0.04663405  0.19491117  0.84123633    -0.05620
C509        C  0.01812061  0.18742750  0.85691656    -0.32590
C510        C  0.01743728  0.16492329  0.88189663     0.36470
H511        H  0.09545072  0.14393956  0.88184170     0.16840
O512        O  0.10292445  0.18554403  0.83578547    -0.60090
H513        H  0.49637490  0.19931899  0.85000389     0.16850
O514        O  0.48921058  0.15707664  0.89621478    -0.60180
H515        H  0.47966531  0.17741476  0.90356639     0.43850
H516        H  0.11178920  0.20352347  0.84832752     0.43800
C517        C  0.39113898  0.06419736  0.65281112    -0.05260
C518        C  0.41903251  0.04714296  0.65998695    -0.32690
C519        C  0.44314778  0.04347094  0.63730545     0.36560
C520        C  0.43964275  0.05644303  0.60628936    -0.05620
C521        C  0.41210318  0.07399269  0.59907119    -0.32590
C522        C  0.38796610  0.07798842  0.62203956     0.36470
H523        H  0.42185296  0.03549552  0.68309017     0.16840
O524        O  0.46921968  0.02553179  0.64518950    -0.60090
H525        H  0.40932080  0.08485723  0.57556733     0.16850
O526        O  0.36206188  0.09633929  0.61459208    -0.60180
H527        H  0.35064822  0.08453186  0.59748854     0.43850
H528        H  0.48328937  0.04014565  0.65726014     0.43800
C529        C  0.19801557  0.02643046  0.65526464    -0.05260
C530        C  0.20383127  0.01771465  0.62313899    -0.32690
C531        C  0.18128276  0.02310723  0.59909885     0.36560
C532        C  0.15110930  0.03548934  0.60695759    -0.05620
C533        C  0.14480045  0.04328900  0.63914677    -0.32590
C534        C  0.16792308  0.03955894  0.66300297     0.36470
H535        H  0.22629545  0.00738808  0.61614504     0.16840
O536        O  0.18924263  0.01614503  0.56792170    -0.60090
H537        H  0.12215842  0.05354666  0.64582562     0.16850
O538        O  0.16151349  0.05133163  0.69315889    -0.60180
H539        H  0.14608410  0.03632470  0.70275795     0.43850
H540        H  0.20055555  0.03522180  0.55990914     0.43800
C541        C  0.15185880  0.05565773  0.89522540    -0.05260
C542        C  0.14524431  0.06960098  0.86520553    -0.32690
C543        C  0.16884064  0.07229749  0.84152723     0.36560
C544        C  0.19964829  0.06054102  0.84763765    -0.05620
C545        C  0.20631695  0.04781173  0.87821006    -0.32590
C546        C  0.18304988  0.04563582  0.90188010     0.36470
H547        H  0.12170585  0.07856576  0.86004483     0.16840
O548        O  0.16183654  0.08745642  0.81311478    -0.60090
H549        H  0.22946524  0.03799910  0.88355719     0.16850
O550        O  0.19077383  0.03181174  0.93078235    -0.60180
H551        H  0.20064659  0.04902115  0.94365858     0.43850
H552        H  0.14525507  0.07438993  0.80261283     0.43800
C553        C  0.39438296  0.03480567  0.84540016    -0.05260
C554        C  0.41837501  0.05784156  0.84368839    -0.32690
C555        C  0.44177418  0.05964304  0.86724748     0.36560
C556        C  0.44134920  0.03841117  0.89333971    -0.05620
C557        C  0.41759683  0.01516364  0.89517596    -0.32590
C558        C  0.39432987  0.01305206  0.87121192     0.36470
H559        H  0.41838785  0.07533579  0.82451107     0.16840
O560        O  0.46374372  0.08358066  0.86571226    -0.60090
H561        H  0.41728238  0.49847050  0.91506842     0.16850
O562        O  0.37181250  0.48971912  0.87323766    -0.60180
H563        H  0.38003079  0.47196062  0.85984130     0.43850
H564        H  0.48033873  0.07569228  0.85077485     0.43800
C565        C  0.19913904  0.39281459  0.48610542    -0.05260
C566        C  0.20510572  0.42160729  0.50223390    -0.32690
C567        C  0.18210668  0.44532530  0.50452832     0.36560
C568        C  0.15174646  0.44041703  0.49165948    -0.05620
C569        C  0.14581160  0.41218438  0.97454360    -0.32590
C570        C  0.16930141  0.38859030  0.97136386     0.36470
H571        H  0.22746116  0.42552854  0.51433597     0.16840
O572        O  0.18918600  0.47260284  0.52099182    -0.60090
H573        H  0.12297658  0.40848310  0.96330891     0.16850
O574        O  0.16329816  0.36227792  0.95276038    -0.60180
H575        H  0.14569777  0.35095636  0.96361276     0.43850
H576        H  0.20051022  0.48623072  0.50528322     0.43800
C577        C  0.15070654  0.15113934  0.50930607    -0.05260
C578        C  0.14470278  0.18197827  0.99795868    -0.32690
C579        C  0.16747565  0.20589223  0.00044060     0.36560
C580        C  0.19710945  0.19953879  0.51511494    -0.05620
C581        C  0.20279919  0.16883200  0.52728727    -0.32590
C582        C  0.18011230  0.14470609  0.52422952     0.36470
H583        H  0.12253567  0.18746419  0.98603722     0.16840
O584        O  0.16131031  0.23466176  0.98606821    -0.60090
H585        H  0.22506483  0.16326757  0.53891755     0.16850
O586        O  0.18675120  0.11514460  0.53657753    -0.60180
H587        H  0.19958724  0.10429139  0.51980169     0.43850
H588        H  0.14565621  0.24539141  0.00025535     0.43800
C589        C  0.43922574  0.15103793  0.49101002    -0.05260
C590        C  0.40862725  0.14487398  0.50238499    -0.32690
C591        C  0.38425821  0.16732373  0.49906819     0.36560
C592        C  0.38973805  0.19656459  0.48292119    -0.05620
C593        C  0.42033305  0.20220372  0.97072094    -0.32590
C594        C  0.44502248  0.18027200  0.97542022     0.36470
H595        H  0.40371878  0.12288703  0.51505548     0.16840
O596        O  0.35594934  0.16127045  0.51402775    -0.60090
H597        H  0.42557104  0.22395770  0.95789965     0.16850
O598        O  0.47465054  0.18756899  0.96420835    -0.60180
H599        H  0.48422552  0.20113840  0.98113569     0.43850
H600        H  0.34576479  0.14437609  0.50097716     0.43800
C601        C  0.39165114  0.39240097  0.51195393    -0.05260
C602        C  0.42308796  0.38521755  0.52056231    -0.32690
C603        C  0.44739863  0.40750024  0.51669044     0.36560
C604        C  0.44057073  0.43873195  0.50617566    -0.05620
C605        C  0.40916796  0.44629509  0.99830176    -0.32590
C606        C  0.38507432  0.42355720  0.00038701     0.36470
H607        H  0.42938274  0.36197738  0.52973835     0.16840
O608        O  0.47780243  0.39823459  0.52326796    -0.60090
H609        H  0.40326125  0.46976691  0.98925993     0.16850
O610        O  0.35580039  0.43157710  0.98855960    -0.60180
H611        H  0.34673107  0.44681338  0.00437080     0.43850
H612        H  0.48551093  0.38788316  0.50324633     0.43800
C613        C  0.36707652  0.86660824  0.01088272     0.03330
C614        C  0.37550103  0.83399251  0.50516873    -0.12820
C615        C  0.35252689  0.81315946  0.49294846     0.00830
C616        C  0.32410876  0.82707116  0.48284008    -0.11340
C617        C  0.31211901  0.85362509  0.99891858     0.03330
C618        C  0.33420341  0.87421170  0.01290434    -0.10760
H619        H  0.39915977  0.82499379  0.50906427     0.08920
H620        H  0.30889807  0.81387918  0.46747657     0.06450
H621        H  0.32606449  0.89592339  0.02428247     0.06300
C622        C  0.36519899  0.72253047  0.98278786     0.03330
C623        C  0.37420161  0.75531618  0.98544122    -0.12820
C624        C  0.35199424  0.77747283  0.99695431     0.00830
C625        C  0.32398233  0.76498835  0.00916577    -0.11340
C626        C  0.31083105  0.73746509  0.99622381     0.03330
C627        C  0.33214651  0.71514822  0.98335004    -0.10760
H628        H  0.39791261  0.76334777  0.98019575     0.08920
H629        H  0.30955967  0.77976391  0.02371369     0.06450
H630        H  0.32347184  0.69239587  0.97500401     0.06300
C631        C  0.22296434  0.72364376  0.01395065     0.03330
C632        C  0.25480471  0.71459694  0.00657582    -0.12820
C633        C  0.27526966  0.73747549  0.99346950     0.00830
C634        C  0.26151712  0.76654805  0.98472915    -0.11340
C635        C  0.23611298  0.77876213  0.00230491     0.03390
C636        C  0.21575212  0.75668971  0.01656180    -0.10760
H637        H  0.26315875  0.69044051  0.00978121     0.08920
H638        H  0.27412892  0.78203435  0.96915519     0.06450
H639        H  0.19419583  0.76482555  0.02808071     0.06300
C640        C  0.22326017  0.86699228  0.98885001     0.03330
C641        C  0.25598415  0.87484732  0.99020707    -0.12820
C642        C  0.27721820  0.85397590  0.00525427     0.00830
C643        C  0.26442702  0.82693332  0.01991029    -0.11340
C644        C  0.23614565  0.81388782  0.00840063     0.03330
C645        C  0.21428364  0.83489730  0.99455403    -0.10760
H646        H  0.26450717  0.89720911  0.98062569     0.08920
H647        H  0.27864620  0.81346660  0.03626748     0.06450
H648        H  0.19074023  0.82635688  0.98950993     0.06300
C649        C  0.36854475  0.53658327  0.32145456     0.03330
C650        C  0.33633171  0.53787956  0.33125278    -0.12820
C651        C  0.31392923  0.55150184  0.31043645     0.00830
C652        C  0.32542046  0.56612458  0.28252334    -0.11340
C653        C  0.35357496  0.55537197  0.26830564     0.03330
C654        C  0.37612780  0.54159945  0.28858107    -0.10760
H655        H  0.32900796  0.52971383  0.35481303     0.08920
H656        H  0.31026114  0.58170188  0.26924801     0.06450
H657        H  0.39937179  0.53559835  0.27930978     0.06300
C658        C  0.22422631  0.55700363  0.32213260     0.03330
C659        C  0.25690133  0.55881047  0.33034549    -0.12820
C660        C  0.27938322  0.54366037  0.31076968     0.00830
C661        C  0.26801282  0.52588887  0.28476511    -0.11340
C662        C  0.23895092  0.53380334  0.27053500     0.03330
C663        C  0.21593597  0.54753905  0.29038024    -0.10760
H664        H  0.26447598  0.57085299  0.35207719     0.08920
H665        H  0.28396508  0.51056580  0.27210997     0.06450
H666        H  0.19215274  0.54984541  0.28119833     0.06300
C667        C  0.22445789  0.52626260  0.17923583     0.03330
C668        C  0.21792990  0.52377796  0.21285299    -0.12820
C669        C  0.23897882  0.53759849  0.23471292     0.00830
C670        C  0.26428543  0.55426347  0.22176903    -0.11340
C671        C  0.27747209  0.54507630  0.19241278     0.03330
C672        C  0.25641403  0.53264437  0.16957447    -0.10760
H673        H  0.19643515  0.51284543  0.22160466     0.08920
H674        H  0.27743404  0.56940237  0.23709945     0.06450
H675        H  0.26444811  0.52962137  0.14504438     0.06300
C676        C  0.36519471  0.56398411  0.17710074     0.03330
C677        C  0.37321437  0.56497283  0.21040823    -0.12820
C678        C  0.35307914  0.55052226  0.23267258     0.00830
C679        C  0.32732736  0.53402068  0.22038836    -0.11340
C680        C  0.31309686  0.54379908  0.19167229     0.03330
C681        C  0.33319074  0.55715223  0.16835694    -0.10760
H682        H  0.39544921  0.57498834  0.21842109     0.08920
H683        H  0.31458063  0.51867163  0.23600957     0.06450
H684        H  0.32452845  0.56050527  0.14411554     0.06300
C685        C  0.04778208  0.72184893  0.31816041     0.03330
C686        C  0.03442845  0.75147059  0.32722207    -0.12820
C687        C  0.03976606  0.77824485  0.30820777     0.00830
C688        C  0.05986519  0.77540104  0.28164110    -0.11340
C689        C  0.06811641  0.74564178  0.26826248     0.03330
C690        C  0.06268534  0.71861391  0.28760242    -0.10760
H691        H  0.02055823  0.75378323  0.34905965     0.08920
H692        H  0.06535453  0.79728582  0.26949550     0.06450
H693        H  0.07000787  0.69531426  0.27922386     0.06300
C694        C  0.03535672  0.86465186  0.32184321     0.03330
C695        C  0.03418152  0.83253629  0.33219864    -0.12820
C696        C  0.02245124  0.80904473  0.31158106     0.00830
C697        C  0.00638953  0.81916994  0.28388249    -0.11340
C698        C  0.01676656  0.84718893  0.26855597     0.03330
C699        C  0.02941415  0.87105789  0.28872430    -0.10760
H700        H  0.04273170  0.82523543  0.35552929     0.08920
H701        H  0.99399232  0.80122171  0.27015893     0.06450
H702        H  0.03603493  0.89383920  0.27865235     0.06300
C703        C  0.05925612  0.72592775  0.17935820     0.03330
C704        C  0.06617098  0.71932952  0.21226912    -0.12820
C705        C  0.07648304  0.74428041  0.23271941     0.00830
C706        C  0.08513079  0.77283944  0.21732161    -0.11340
C707        C  0.06805345  0.78205445  0.18993511     0.03330
C708        C  0.05625905  0.75810671  0.17006386    -0.10760
H709        H  0.06257224  0.69570206  0.22188107     0.08920
H710        H  0.09675580  0.79141357  0.23090000     0.06450
H711        H  0.04373324  0.76446200  0.14821637     0.06300
C712        C  0.04469632  0.86917191  0.18291199     0.03330
C713        C  0.03041425  0.87297117  0.21366314    -0.12820
C714        C  0.02419496  0.84594842  0.23290378     0.00830
C715        C  0.03102612  0.81601724  0.21927441    -0.11340
C716        C  0.05089390  0.81274211  0.19269253     0.03330
C717        C  0.05690634  0.83924974  0.17364024    -0.10760
H718        H  0.02355170  0.89643618  0.22196674     0.08920
H719        H  0.02519027  0.79425196  0.23152014     0.06450
H720        H  0.07065179  0.83670219  0.15173237     0.06300
O721        O  0.45622385  0.99308315  0.00311062    -0.86280
O722        O  0.13515686  0.99416416  0.99662945    -0.86450
O723        O  0.04601961  0.95500326  0.44754838    -0.88120
O724        O  0.04726557  0.95614757  0.05416361    -0.86870
O725        O  0.04577796  0.99507224  0.09306208    -0.86460
O726        O  0.04691263  0.99392501  0.40872496    -0.87840
O727        O  0.09759384  0.95484598  0.99712962    -0.86310
O728        O  0.49469319  0.95446572  0.00212783    -0.85900
Zr729      Zr  0.04598991  0.98096091  0.00058989     2.84310
O730        O  0.07742193  0.51337182  0.03331164    -1.07880
O731        O  0.01405474  0.51299030  0.46781641    -1.08600
C732        C  0.46548965  0.96366382  0.00349961     1.06820
C733        C  0.12650714  0.96470170  0.99551202     1.06770
C734        C  0.04642613  0.96456845  0.41787875     1.09750
C735        C  0.04665111  0.96573809  0.08386233     1.07530
H736        H  0.09123241  0.50050946  0.45407231     0.33090
O737        O  0.07786940  0.51325798  0.46789897    -1.28830
H738        H  0.00042544  0.50032323  0.04699843     0.32760
O739        O  0.01358905  0.51324409  0.03323857    -1.30510
O740        O  0.13518987  0.59696609  0.00522173    -0.86280
O741        O  0.45554848  0.59710408  0.99614000    -0.87770
O742        O  0.09757629  0.54985606  0.40934537    -0.86350
O743        O  0.09708308  0.54268528  0.09174662    -0.86400
O744        O  0.49342199  0.54965788  0.09106719    -0.86120
O745        O  0.49458601  0.54308912  0.40928564    -0.85920
O746        O  0.04581086  0.63558398  0.44667150    -0.86290
O747        O  0.04379490  0.63587435  0.05293031    -0.85760
O748        O  0.04515534  0.59632041  0.40801748    -0.86820
O749        O  0.04530194  0.59757617  0.09235175    -0.85980
O750        O  0.13498388  0.55096601  0.44923139    -0.86380
O751        O  0.45593638  0.54022255  0.44811321    -0.86100
O752        O  0.45527581  0.55101416  0.05180143    -0.85750
O753        O  0.13507620  0.54091536  0.05244649    -0.86160
O754        O  0.09695750  0.63579384  0.00270985    -0.86450
O755        O  0.49338913  0.63616890  0.99688729    -0.87790
Zr756      Zr  0.10885617  0.54574126  0.00081268     2.83100
Zr757      Zr  0.48178986  0.54521350  0.00014203     2.83500
Zr758      Zr  0.04599230  0.54538914  0.43551957     2.84090
Zr759      Zr  0.04528358  0.54600461  0.06544187     2.83360
Zr760      Zr  0.04507689  0.61016752  0.99996838     2.84220
O761        O  0.01330462  0.57788396  0.03249541    -1.08360
O762        O  0.07750019  0.57802227  0.46785326    -1.07860
C763        C  0.12604912  0.62632621  0.00541280     1.06800
C764        C  0.46439987  0.62656317  0.99510430     1.09420
C765        C  0.12643315  0.55191565  0.41945551     1.06970
C766        C  0.12614018  0.54013965  0.08212424     1.07330
C767        C  0.46441314  0.55199302  0.08144806     1.06910
C768        C  0.46553959  0.54061026  0.41860855     1.06470
C769        C  0.04545466  0.62565210  0.41712454     1.06890
C770        C  0.04459219  0.62680891  0.08274991     1.06400
H771        H  0.00026423  0.59027774  0.45351307     0.33080
O772        O  0.01345288  0.57749580  0.46744527    -1.29460
H773        H  0.09007815  0.59118538  0.04702315     0.33100
O774        O  0.07702299  0.57824149  0.03318774    -1.30840
C775        C  0.04486546  0.89510075  0.15893134    -0.05260
C776        C  0.02824846  0.89036280  0.13014216    -0.32690
C777        C  0.02901441  0.91299325  0.10558442     0.36560
C778        C  0.04633164  0.94125147  0.10952485    -0.05620
C779        C  0.06271668  0.94627877  0.13863414    -0.32590
C780        C  0.06218995  0.92329243  0.16322608     0.36470
H781        H  0.01467673  0.86878795  0.12661558     0.16840
O782        O  0.51182137  0.90769232  0.07819648    -0.60090
H783        H  0.07639343  0.96778372  0.14207063     0.16850
O784        O  0.07980805  0.92785213  0.19055710    -0.60180
H785        H  0.06615016  0.94071270  0.20503707     0.43850
H786        H  0.52527890  0.89346167  0.06485748     0.43800
C787        C  0.04635207  0.65208980  0.10767719    -0.05260
C788        C  0.06235557  0.68027749  0.10024982    -0.32690
C789        C  0.06650139  0.70410719  0.12331995     0.36560
C790        C  0.05410663  0.70047576  0.15477665    -0.05620
C791        C  0.03770259  0.67233701  0.16223166    -0.32590
C792        C  0.03396787  0.64816842  0.13904938     0.36470
H793        H  0.07277002  0.68352390  0.07661193     0.16840
O794        O  0.08456544  0.73005160  0.11539048    -0.60090
H795        H  0.02759198  0.66906133  0.18596730     0.16850
O796        O  0.01738204  0.62128666  0.14702092    -0.60180
H797        H  0.03269943  0.60752816  0.15863984     0.43850
H798        H  0.07155164  0.74262280  0.10007238     0.43800
C799        C  0.04213715  0.89121083  0.34498381    -0.05260
C800        C  0.02603336  0.92033410  0.34095509    -0.32690
C801        C  0.02823236  0.94469855  0.36383400     0.36560
C802        C  0.04594134  0.94005633  0.39218810    -0.05620
C803        C  0.06314609  0.91168192  0.39585283    -0.32590
C804        C  0.06188094  0.88758768  0.37236104     0.36470
H805        H  0.01056406  0.92397639  0.32048527     0.16840
O806        O  0.01126524  0.97221600  0.35914936    -0.60090
H807        H  0.07795083  0.90827958  0.41689015     0.16850
O808        O  0.08120724  0.86146227  0.37568814    -0.60180
H809        H  0.07432661  0.85076773  0.39580819     0.43850
H810        H  0.02467455  0.98552641  0.34493887     0.43800
C811        C  0.04554714  0.64960092  0.39136002    -0.05260
C812        C  0.07380403  0.65608255  0.37500054    -0.32690
C813        C  0.07456348  0.67870321  0.35025022     0.36560
C814        C  0.04663704  0.69490889  0.34123639    -0.05620
C815        C  0.01812635  0.68742902  0.35692403    -0.32590
C816        C  0.01744572  0.66492336  0.38190266     0.36470
H817        H  0.09545512  0.64392521  0.38182545     0.16840
O818        O  0.10292505  0.68553349  0.33577218    -0.60090
H819        H  0.49636526  0.69931448  0.35000450     0.16850
O820        O  0.48920460  0.65707293  0.39621682    -0.60180
H821        H  0.47965689  0.67741066  0.40356631     0.43850
H822        H  0.11179463  0.70351089  0.34831367     0.43800
C823        C  0.39114040  0.56419923  0.15281191    -0.05260
C824        C  0.41903180  0.54714070  0.15998618    -0.32690
C825        C  0.44314661  0.54346828  0.13730449     0.36560
C826        C  0.43964301  0.55644424  0.10629002    -0.05620
C827        C  0.41210549  0.57399761  0.09907328    -0.32590
C828        C  0.38796885  0.57799364  0.12204186     0.36470
H829        H  0.42185078  0.53549047  0.18308816     0.16840
O830        O  0.46921637  0.52552503  0.14518639    -0.60090
H831        H  0.40932448  0.58486478  0.07557050     0.16850
O832        O  0.36206643  0.59634783  0.11459618    -0.60180
H833        H  0.35065146  0.58454307  0.09749166     0.43850
H834        H  0.48328767  0.54013562  0.15725913     0.43800
C835        C  0.19801740  0.52643378  0.15526233    -0.05260
C836        C  0.20383357  0.51771957  0.12313634    -0.32690
C837        C  0.18128493  0.52311214  0.09909639     0.36560
C838        C  0.15111069  0.53549207  0.10695560    -0.05620
C839        C  0.14480143  0.54329019  0.13914509    -0.32590
C840        C  0.16792429  0.53956053  0.16300114     0.36470
H841        H  0.22629826  0.50739445  0.11614194     0.16840
O842        O  0.18924566  0.51615248  0.06791889    -0.60090
H843        H  0.12215884  0.55354633  0.14582437     0.16850
O844        O  0.16151418  0.55133193  0.19315746    -0.60180
H845        H  0.14608545  0.53632399  0.20275602     0.43850
H846        H  0.20055706  0.53523067  0.05990760     0.43800
C847        C  0.15186575  0.55564723  0.39522336    -0.05260
C848        C  0.14525311  0.56960021  0.36520774    -0.32690
C849        C  0.16884951  0.57229875  0.34153004     0.36560
C850        C  0.19965484  0.56053511  0.34763727    -0.05620
C851        C  0.20632170  0.54779514  0.37820545    -0.32590
C852        C  0.18305450  0.54561646  0.40187479     0.36470
H853        H  0.12171625  0.57857111  0.36005020     0.16840
O854        O  0.16184816  0.58746601  0.31312142    -0.60090
H855        H  0.22946829  0.53797641  0.38354906     0.16850
O856        O  0.19077524  0.53178093  0.43077234    -0.60180
H857        H  0.20065398  0.54898310  0.44365369     0.43850
H858        H  0.14526480  0.57440482  0.30261585     0.43800
C859        C  0.39438553  0.53479994  0.34539920    -0.05260
C860        C  0.41837612  0.55783741  0.34368820    -0.32690
C861        C  0.44177390  0.55964096  0.36724854     0.36560
C862        C  0.44134901  0.53840955  0.39334114    -0.05620
C863        C  0.41759795  0.51516067  0.39517682    -0.32590
C864        C  0.39433236  0.51304707  0.37121163     0.36470
H865        H  0.41838877  0.57533131  0.32451058     0.16840
O866        O  0.46374200  0.58357997  0.36571400    -0.60090
H867        H  0.41728307  0.99847012  0.41506713     0.16850
O868        O  0.37181264  0.98971966  0.37323686    -0.60180
H869        H  0.38003051  0.97196102  0.35984042     0.43850
H870        H  0.48033807  0.57569255  0.35077730     0.43800
C871        C  0.19913360  0.89282175  0.98611112    -0.05260
C872        C  0.20509906  0.92161391  0.00224127    -0.32690
C873        C  0.18209985  0.94533222  0.00453492     0.36560
C874        C  0.15174040  0.94042497  0.99166372    -0.05620
C875        C  0.14580930  0.91218276  0.47454753    -0.32590
C876        C  0.16929847  0.88858809  0.47136766     0.36470
H877        H  0.22745379  0.92553463  0.01434488     0.16840
O878        O  0.18917821  0.97260914  0.02099981    -0.60090
H879        H  0.12297309  0.90848054  0.46331565     0.16850
O880        O  0.16329301  0.86227416  0.45276719    -0.60180
H881        H  0.14569347  0.85095385  0.46362236     0.43850
H882        H  0.20050328  0.98623756  0.00529233     0.43800
C883        C  0.15070689  0.65113995  0.00930349    -0.05260
C884        C  0.14471191  0.68196910  0.49795537    -0.32690
C885        C  0.16748242  0.70588507  0.50043929     0.36560
C886        C  0.19710738  0.69954151  0.01511339    -0.05620
C887        C  0.20279897  0.66883434  0.02728411    -0.32590
C888        C  0.18011336  0.64470735  0.02422562     0.36470
H889        H  0.12254569  0.68745296  0.48603124     0.16840
O890        O  0.16131637  0.73465374  0.48606548    -0.60090
H891        H  0.22506517  0.66327034  0.03891347     0.16850
O892        O  0.18675430  0.61514542  0.03657143    -0.60180
H893        H  0.19958969  0.60429372  0.01979408     0.43850
H894        H  0.14566086  0.74538300  0.50025131     0.43800
C895        C  0.43922324  0.65104036  0.99101254    -0.05260
C896        C  0.40862427  0.64487621  0.00238619    -0.32690
C897        C  0.38425538  0.66732630  0.99906942     0.36560
C898        C  0.38973589  0.69656793  0.98292403    -0.05620
C899        C  0.42033367  0.70220382  0.47071943    -0.32590
C900        C  0.44502268  0.68027193  0.47541983     0.36470
H901        H  0.40371522  0.62288871  0.01505547     0.16840
O902        O  0.35594579  0.66127241  0.01402731    -0.60090
H903        H  0.42557220  0.72395735  0.45789759     0.16850
O904        O  0.47465107  0.68756829  0.46420843    -0.60180
H905        H  0.48422577  0.70113818  0.48113553     0.43850
H906        H  0.34576185  0.64437861  0.00097548     0.43800
C907        C  0.39164899  0.89240328  0.01195761    -0.05260
C908        C  0.42308658  0.88521828  0.02056225    -0.32690
C909        C  0.44739794  0.90749988  0.01668814     0.36560
C910        C  0.44057027  0.93873231  0.00617548    -0.05620
C911        C  0.40916942  0.94629465  0.49829686    -0.32590
C912        C  0.38507524  0.92355731  0.50038137     0.36470
H913        H  0.42938156  0.86197767  0.02973691     0.16840
O914        O  0.47780216  0.89823232  0.02326109    -0.60090
H915        H  0.40326386  0.96976607  0.48925324     0.16850
O916        O  0.35580220  0.93157694  0.48855148    -0.60180
H917        H  0.34673178  0.94681370  0.50436155     0.43850
H918        H  0.48550776  0.88788217  0.00323764     0.43800
C919        C  0.36707825  0.86660511  0.51087917     0.03330
C920        C  0.37549859  0.83399541  0.00517222    -0.12820
C921        C  0.35252410  0.81316276  0.99295219     0.00830
C922        C  0.32410600  0.82707499  0.98284423    -0.11340
C923        C  0.31212147  0.85362091  0.49891467     0.03330
C924        C  0.33420523  0.87420803  0.51290042    -0.10760
H925        H  0.39915709  0.82499600  0.00906739     0.08920
H926        H  0.30889493  0.81388323  0.96748109     0.06450
H927        H  0.32606596  0.89591991  0.52427800     0.06300
C928        C  0.36520033  0.72252741  0.48278582     0.03330
C929        C  0.37420317  0.75531305  0.48543789    -0.12820
C930        C  0.35199677  0.77746984  0.49695213     0.00830
C931        C  0.32398535  0.76498583  0.50916552    -0.11340
C932        C  0.31083330  0.73746191  0.49622533     0.03330
C933        C  0.33214795  0.71514508  0.48335027    -0.10760
H934        H  0.39791381  0.76334459  0.48019073     0.08920
H935        H  0.30956343  0.77976215  0.52371350     0.06450
H936        H  0.32347280  0.69239261  0.47500508     0.06300
C937        C  0.22296592  0.72364022  0.51395273     0.03330
C938        C  0.25480644  0.71459324  0.50657816    -0.12820
C939        C  0.27527173  0.73747213  0.49347257     0.00830
C940        C  0.26151930  0.76654464  0.48473265    -0.11340
C941        C  0.23611559  0.77875850  0.50230879     0.03390
C942        C  0.21575404  0.75668615  0.51656465    -0.10760
H943        H  0.26316008  0.69043658  0.50978304     0.08920
H944        H  0.27413129  0.78203138  0.46915939     0.06450
H945        H  0.19419743  0.76482198  0.52808296     0.06300
C946        C  0.22326346  0.86698579  0.48884609     0.03330
C947        C  0.25598731  0.87484055  0.49020094    -0.12820
C948        C  0.27722116  0.85397133  0.50525090     0.00830
C949        C  0.26443035  0.82693044  0.51991059    -0.11340
C950        C  0.23614818  0.81388409  0.50840354     0.03330
C951        C  0.21428628  0.83489207  0.49455492    -0.10760
H952        H  0.26451030  0.89720107  0.48061645     0.08920
H953        H  0.27865016  0.81346510  0.53626847     0.06450
H954        H  0.19074250  0.82635155  0.48951271     0.06300
C955        C  0.36854252  0.53658710  0.82145416     0.03330
C956        C  0.33632961  0.53788539  0.83125221    -0.12820
C957        C  0.31392781  0.55150797  0.81043534     0.00830
C958        C  0.32541963  0.56612894  0.78252143    -0.11340
C959        C  0.35357399  0.55537474  0.76830456     0.03330
C960        C  0.37612601  0.54160194  0.78858066    -0.10760
H961        H  0.32900540  0.52972063  0.85481267     0.08920
H962        H  0.31026091  0.58170624  0.76924519     0.06450
H963        H  0.39936978  0.53559936  0.77930974     0.06300
C964        C  0.22422437  0.55700900  0.82212989     0.03330
C965        C  0.25689947  0.55881868  0.83034203    -0.12820
C966        C  0.27938189  0.54366648  0.81076850     0.00830
C967        C  0.26801235  0.52589141  0.78476612    -0.11340
C968        C  0.23895025  0.53380330  0.77053496     0.03330
C969        C  0.21593456  0.54753996  0.79037865    -0.10760
H970        H  0.26447396  0.57086489  0.85207169     0.08920
H971        H  0.28396561  0.51056830  0.77211225     0.06450
H972        H  0.19215142  0.54984379  0.78119609     0.06300
C973        C  0.22445747  0.52625929  0.67923579     0.03330
C974        C  0.21792940  0.52377571  0.71285305    -0.12820
C975        C  0.23897879  0.53759610  0.73471261     0.00830
C976        C  0.26428585  0.55425991  0.72176825    -0.11340
C977        C  0.27747229  0.54507180  0.69241228     0.03330
C978        C  0.25641382  0.53263999  0.66957421    -0.10760
H979        H  0.19643422  0.51284428  0.72160502     0.08920
H980        H  0.27743488  0.56939872  0.73709833     0.06450
H981        H  0.26444766  0.52961642  0.64504410     0.06300
C982        C  0.36519395  0.56398288  0.67709955     0.03330
C983        C  0.37321306  0.56497380  0.71040707    -0.12820
C984        C  0.35307860  0.55052291  0.73267188     0.00830
C985        C  0.32732798  0.53401897  0.72038837    -0.11340
C986        C  0.31309713  0.54379525  0.69167161     0.03330
C987        C  0.33319048  0.55714853  0.66835579    -0.10760
H988        H  0.39544704  0.57499136  0.71841975     0.08920
H989        H  0.31458178  0.51867024  0.73601056     0.06450
H990        H  0.32452814  0.56050010  0.64411420     0.06300
C991        C  0.04779344  0.72184729  0.81815962     0.03330
C992        C  0.03444244  0.75146914  0.82722419    -0.12820
C993        C  0.03977867  0.77824384  0.80821045     0.00830
C994        C  0.05987405  0.77540026  0.78164070    -0.11340
C995        C  0.06812297  0.74564098  0.76826022     0.03330
C996        C  0.06269362  0.71861274  0.78760015    -0.10760
H997        H  0.02057449  0.75378142  0.84906331     0.08920
H998        H  0.06536167  0.79728524  0.76949465     0.06450
H999        H  0.07001412  0.69531301  0.77922001     0.06300
C1000       C  0.03537081  0.86465064  0.82184824     0.03330
C1001       C  0.03419635  0.83253475  0.83220359    -0.12820
C1002       C  0.02246388  0.80904337  0.81158711     0.00830
C1003       C  0.00639784  0.81916880  0.78389150    -0.11340
C1004       C  0.01677346  0.84718723  0.76856329     0.03330
C1005       C  0.02942577  0.87105556  0.78872932    -0.10760
H1006       H  0.04274759  0.82523262  0.85553317     0.08920
H1007       H  0.99399788  0.80122087  0.77017013     0.06450
H1008       H  0.03604737  0.89383568  0.77865528     0.06300
C1009       C  0.05924958  0.72592612  0.67935751     0.03330
C1010       C  0.06617047  0.71932817  0.71226719    -0.12820
C1011       C  0.07648415  0.74427979  0.73271578     0.00830
C1012       C  0.08512780  0.77283914  0.71731633    -0.11340
C1013       C  0.06804498  0.78205311  0.68993306     0.03330
C1014       C  0.05624814  0.75810486  0.67006411    -0.10760
H1015       H  0.06257537  0.69570031  0.72187953     0.08920
H1016       H  0.09675446  0.79141390  0.73089234     0.06450
H1017       H  0.04371798  0.76445948  0.64821899     0.06300
C1018       C  0.04468676  0.86916987  0.68291402     0.03330
C1019       C  0.03041053  0.87296940  0.71366789    -0.12820
C1020       C  0.02419457  0.84594669  0.73290969     0.00830
C1021       C  0.03102257  0.81601540  0.71927901    -0.11340
C1022       C  0.05088508  0.81274011  0.69269315     0.03330
C1023       C  0.05689432  0.83924755  0.67363981    -0.10760
H1024       H  0.02355046  0.89643458  0.72197312     0.08920
H1025       H  0.02518943  0.79425019  0.73152625     0.06450
H1026       H  0.07063630  0.83669989  0.65172968     0.06300
O1027       O  0.45622282  0.99308182  0.50311086    -0.86280
O1028       O  0.13516325  0.99415686  0.49662783    -0.86450
O1029       O  0.04601716  0.95500982  0.94754906    -0.88120
O1030       O  0.04726836  0.95614176  0.55416418    -0.86870
O1031       O  0.04578161  0.99506733  0.59306191    -0.86460
O1032       O  0.04691103  0.99393126  0.90872564    -0.87840
O1033       O  0.09759991  0.95483899  0.49712942    -0.86310
O1034       O  0.49469245  0.95446457  0.50212886    -0.85900
Zr1035     Zr  0.04599672  0.98095420  0.50058956     2.84310
O1036       O  0.07742198  0.51336988  0.53331134    -1.07880
O1037       O  0.01405448  0.51299219  0.96781695    -1.08600
C1038       C  0.46548889  0.96366257  0.50350024     1.06820
C1039       C  0.12651308  0.96469463  0.49551082     1.06770
C1040       C  0.04642633  0.96457462  0.91787937     1.09750
C1041       C  0.04665288  0.96573305  0.58386271     1.07530
H1042       H  0.09123270  0.50051016  0.95407284     0.33090
O1043       O  0.07786973  0.51325884  0.96789939    -1.28830
H1044       H  0.00042521  0.50031962  0.54699796     0.32760
O1045       O  0.01358867  0.51324093  0.53323838    -1.30510
O1046       O  0.13518887  0.59696497  0.50522213    -0.86280
O1047       O  0.45555089  0.59710337  0.49614035    -0.87770
O1048       O  0.09757647  0.54985806  0.90934543    -0.86350
O1049       O  0.09708254  0.54268247  0.59174643    -0.86400
O1050       O  0.49342342  0.54965834  0.59106774    -0.86120
O1051       O  0.49458357  0.54308998  0.90928490    -0.85920
O1052       O  0.04581521  0.63558420  0.94666998    -0.86290
O1053       O  0.04379140  0.63587137  0.55293087    -0.85760
O1054       O  0.04515889  0.59631990  0.90801666    -0.86820
O1055       O  0.04530028  0.59757317  0.59235209    -0.85980
O1056       O  0.13498388  0.55096956  0.94923135    -0.86380
O1057       O  0.45593409  0.54022268  0.94811259    -0.86100
O1058       O  0.45527752  0.55101416  0.55180176    -0.85750
O1059       O  0.13507584  0.54091311  0.55244642    -0.86160
O1060       O  0.09695628  0.63579259  0.50271081    -0.86450
O1061       O  0.49339139  0.63616835  0.49688771    -0.87790
Zr1062     Zr  0.10885574  0.54573998  0.50081264     2.83100
Zr1063     Zr  0.48179218  0.54521311  0.50014270     2.83500
Zr1064     Zr  0.04599276  0.54538972  0.93551976     2.84090
Zr1065     Zr  0.04528304  0.54600207  0.56544152     2.83360
Zr1066     Zr  0.04507564  0.61016536  0.49996888     2.84220
O1067       O  0.01330362  0.57788058  0.53249501    -1.08360
O1068       O  0.07750052  0.57802303  0.96785332    -1.07860
C1069       C  0.12604802  0.62632504  0.50541368     1.06800
C1070       C  0.46440220  0.62656241  0.49510456     1.09420
C1071       C  0.12643322  0.55191948  0.91945545     1.06970
C1072       C  0.12613969  0.54013689  0.58212414     1.07330
C1073       C  0.46441457  0.55199344  0.58144846     1.06910
C1074       C  0.46553724  0.54061083  0.91860791     1.06470
C1075       C  0.04545968  0.62565162  0.91712321     1.06890
C1076       C  0.04458903  0.62680591  0.58275041     1.06400
H1077       H  0.00026569  0.59028033  0.95351212     0.33080
O1078       O  0.01345404  0.57749831  0.96744454    -1.29460
H1079       H  0.09007715  0.59118363  0.54702361     0.33100
O1080       O  0.07702224  0.57823968  0.53318800    -1.30840
C1081       C  0.04485568  0.89509941  0.65893435    -0.05260
C1082       C  0.02823814  0.89036270  0.63014523    -0.32690
C1083       C  0.02900772  0.91299199  0.60558655     0.36560
C1084       C  0.04632927  0.94124757  0.60952602    -0.05620
C1085       C  0.06271372  0.94627425  0.63863573    -0.32590
C1086       C  0.06218328  0.92328916  0.66322862     0.36470
H1087       H  0.01466398  0.86878933  0.62661909     0.16840
O1088       O  0.51183259  0.90768736  0.57819458    -0.60090
H1089       H  0.07639313  0.96777756  0.64207170     0.16850
O1090       O  0.07980128  0.92784771  0.69055991    -0.60180
H1091       H  0.06614482  0.94071097  0.70503881     0.43850
H1092       H  0.52529299  0.89345873  0.56485637     0.43800
C1093       C  0.04634736  0.65208700  0.60767760    -0.05260
C1094       C  0.06234479  0.68027765  0.60024816    -0.32690
C1095       C  0.06648944  0.70410797  0.62331770     0.36560
C1096       C  0.05409980  0.70047405  0.65477620    -0.05620
C1097       C  0.03770141  0.67233251  0.66223329    -0.32590
C1098       C  0.03396767  0.64816342  0.63905139     0.36470
H1099       H  0.07275561  0.68352615  0.57660891     0.16840
O1100       O  0.08454783  0.73005560  0.61538564    -0.60090
H1101       H  0.02759464  0.66905489  0.68597034     0.16850
O1102       O  0.01738738  0.62127882  0.64702509    -0.60180
H1103       H  0.03270850  0.60752298  0.65864213     0.43850
H1104       H  0.07152963  0.74262460  0.60006955     0.43800
C1105       C  0.04215099  0.89121127  0.84498816    -0.05260
C1106       C  0.02605718  0.92033901  0.84094936    -0.32690
C1107       C  0.02825378  0.94470583  0.86382590     0.36560
C1108       C  0.04594814  0.94006156  0.89218908    -0.05620
C1109       C  0.06314431  0.91168321  0.89586392    -0.32590
C1110       C  0.06188339  0.88758687  0.87237409     0.36470
H1111       H  0.01059668  0.92398388  0.82047322     0.16840
O1112       O  0.01129788  0.97222816  0.85912903    -0.60090
H1113       H  0.07793927  0.90827909  0.91690806     0.16850
O1114       O  0.08120356  0.86145836  0.87571240    -0.60180
H1115       H  0.07431321  0.85076774  0.89583117     0.43850
H1116       H  0.02471882  0.98553251  0.84492409     0.43800
C1117       C  0.04555411  0.64959952  0.89135813    -0.05260
C1118       C  0.07381125  0.65607794  0.87499764    -0.32690
C1119       C  0.07457209  0.67869799  0.85024678     0.36560
C1120       C  0.04664683  0.69490610  0.84123378    -0.05620
C1121       C  0.01813573  0.68742846  0.85692162    -0.32590
C1122       C  0.01745373  0.66492359  0.88190067     0.36470
H1123       H  0.09546140  0.64391875  0.88182230     0.16840
O1124       O  0.10293378  0.68552542  0.83576758    -0.60090
H1125       H  0.49637128  0.69931975  0.85000420     0.16850
O1126       O  0.48920662  0.65707689  0.89621453    -0.60180
H1127       H  0.47966159  0.67741468  0.90356739     0.43850
H1128       H  0.11180592  0.70350154  0.84830905     0.43800
C1129       C  0.39114008  0.56419893  0.65281107    -0.05260
C1130       C  0.41903302  0.54714360  0.65998693    -0.32690
C1131       C  0.44314849  0.54347179  0.63730583     0.36560
C1132       C  0.43964407  0.55644498  0.60629023    -0.05620
C1133       C  0.41210512  0.57399558  0.59907204    -0.32590
C1134       C  0.38796783  0.57799111  0.62204007     0.36470
H1135       H  0.42185282  0.53549525  0.68308977     0.16840
O1136       O  0.46921982  0.52553169  0.64518960    -0.60090
H1137       H  0.40932336  0.58486086  0.57556846     0.16850
O1138       O  0.36206402  0.59634268  0.61459284    -0.60180
H1139       H  0.35065027  0.58453589  0.59748890     0.43850
H1140       H  0.48328973  0.54014475  0.65726096     0.43800
C1141       C  0.19801687  0.52643069  0.65526234    -0.05260
C1142       C  0.20383249  0.51771501  0.62313665    -0.32690
C1143       C  0.18128371  0.52310719  0.59909667     0.36560
C1144       C  0.15111009  0.53548887  0.60695558    -0.05620
C1145       C  0.14480136  0.54328843  0.63914481    -0.32590
C1146       C  0.16792422  0.53955871  0.66300087     0.36470
H1147       H  0.22629678  0.50738879  0.61614256     0.16840
O1148       O  0.18924348  0.51614501  0.56791950    -0.60090
H1149       H  0.12215921  0.55354574  0.64582382     0.16850
O1150       O  0.16151463  0.55133123  0.69315686    -0.60180
H1151       H  0.14608541  0.53632412  0.70275593     0.43850
H1152       H  0.20055612  0.53522189  0.55990681     0.43800
C1153       C  0.15186548  0.55565384  0.89522302    -0.05260
C1154       C  0.14524932  0.56959866  0.86520428    -0.32690
C1155       C  0.16884473  0.57229776  0.84152561     0.36560
C1156       C  0.19965289  0.56054240  0.84763473    -0.05620
C1157       C  0.20632330  0.54781208  0.87820631    -0.32590
C1158       C  0.18305715  0.54563361  0.90187672     0.36470
H1159       H  0.12171024  0.57856248  0.86004475     0.16840
O1160       O  0.16183923  0.58745767  0.81311403    -0.60090
H1161       H  0.22947217  0.53800022  0.88355236     0.16850
O1162       O  0.19078254  0.53180849  0.93077806    -0.60180
H1163       H  0.20065479  0.54901775  0.94365489     0.43850
H1164       H  0.14525789  0.57439109  0.80261201     0.43800
C1165       C  0.39438307  0.53480280  0.84539882    -0.05260
C1166       C  0.41837458  0.55783922  0.84368760    -0.32690
C1167       C  0.44177245  0.55964190  0.86724782     0.36560
C1168       C  0.44134669  0.53841065  0.89334054    -0.05620
C1169       C  0.41759476  0.51516270  0.89517639    -0.32590
C1170       C  0.39432902  0.51304999  0.87121129     0.36470
H1171       H  0.41838791  0.57533301  0.82450987     0.16840
O1172       O  0.46374153  0.58357999  0.86571306    -0.60090
H1173       H  0.41728495  0.99847097  0.91506759     0.16850
O1174       O  0.37181316  0.98972140  0.87323859    -0.60180
H1175       H  0.38003065  0.97196321  0.85984129     0.43850
H1176       H  0.48033710  0.57569190  0.85077613     0.43800
C1177       C  0.19913775  0.89281523  0.48610677    -0.05260
C1178       C  0.20510481  0.92160782  0.50223535    -0.32690
C1179       C  0.18210603  0.94532608  0.50453001     0.36560
C1180       C  0.15174569  0.94041812  0.49166140    -0.05620
C1181       C  0.14580554  0.91218993  0.97454866    -0.32590
C1182       C  0.16929516  0.88859529  0.97136972     0.36470
H1183       H  0.22746036  0.92552885  0.51433729     0.16840
O1184       O  0.18918572  0.97260353  0.52099347    -0.60090
H1185       H  0.12297018  0.90848800  0.96331493     0.16850
O1186       O  0.16329104  0.86228223  0.95276756    -0.60180
H1187       H  0.14569098  0.85096123  0.96362112     0.43850
H1188       H  0.20050998  0.98623132  0.50528482     0.43800
C1189       C  0.15070612  0.65113851  0.50930480    -0.05260
C1190       C  0.14471106  0.68197086  0.99795579    -0.32690
C1191       C  0.16748064  0.70588758  0.00043984     0.36560
C1192       C  0.19710836  0.69953853  0.51511439    -0.05620
C1193       C  0.20279837  0.66883172  0.52728660    -0.32590
C1194       C  0.18011180  0.64470555  0.52422851     0.36470
H1195       H  0.12254416  0.68745454  0.98603288     0.16840
O1196       O  0.16131282  0.73465657  0.98606749    -0.60090
H1197       H  0.22506400  0.66326750  0.53891699     0.16850
O1198       O  0.18675091  0.61514407  0.53657645    -0.60180
H1199       H  0.19958732  0.60429111  0.51980074     0.43850
H1200       H  0.14565754  0.74538464  0.00025450     0.43800
C1201       C  0.43922542  0.65103913  0.49101235    -0.05260
C1202       C  0.40862667  0.64487478  0.50238643    -0.32690
C1203       C  0.38425739  0.66732417  0.49906889     0.36560
C1204       C  0.38973726  0.69656512  0.48292207    -0.05620
C1205       C  0.42033254  0.70220658  0.97072204    -0.32590
C1206       C  0.44502106  0.68027380  0.97542133     0.36470
H1207       H  0.40371813  0.62288772  0.51505670     0.16840
O1208       O  0.35594813  0.66127043  0.51402749    -0.60090
H1209       H  0.42557155  0.72396065  0.95790135     0.16850
O1210       O  0.47464954  0.68756990  0.96420999    -0.60180
H1211       H  0.48422467  0.70113894  0.98113755     0.43850
H1212       H  0.34576417  0.64437609  0.50097640     0.43800
C1213       C  0.39164979  0.89240065  0.51195483    -0.05260
C1214       C  0.42308641  0.88521712  0.52056381    -0.32690
C1215       C  0.44739736  0.90749941  0.51669153     0.36560
C1216       C  0.44056988  0.93873084  0.50617564    -0.05620
C1217       C  0.40916905  0.94629760  0.99830110    -0.32590
C1218       C  0.38507429  0.92356095  0.00038695     0.36470
H1219       H  0.42938080  0.86197713  0.52974062     0.16840
O1220       O  0.47780099  0.89823369  0.52326973    -0.60090
H1221       H  0.40326309  0.96976986  0.98925996     0.16850
O1222       O  0.35580026  0.93158257  0.98856101    -0.60180
H1223       H  0.34673217  0.94681851  0.00437326     0.43850
H1224       H  0.48550961  0.88788148  0.50324856     0.43800
C1225       C  0.86707535  0.36661628  0.01089769     0.03330
C1226       C  0.87550114  0.33399239  0.50516885    -0.12820
C1227       C  0.85252705  0.31315926  0.49294861     0.00830
C1228       C  0.82410904  0.32707093  0.48283981    -0.11340
C1229       C  0.81211915  0.35363366  0.99893131     0.03330
C1230       C  0.83420239  0.37421834  0.01292166    -0.10760
H1231       H  0.89915984  0.32499369  0.50906470     0.08920
H1232       H  0.80889848  0.31387883  0.46747629     0.06450
H1233       H  0.82606336  0.39592880  0.02430236     0.06300
C1234       C  0.86520114  0.22254371  0.98277853     0.03330
C1235       C  0.87420457  0.25532862  0.98543490    -0.12820
C1236       C  0.85199512  0.27748468  0.99694593     0.00830
C1237       C  0.82398058  0.26499935  0.00915033    -0.11340
C1238       C  0.81083139  0.23747694  0.99620468     0.03330
C1239       C  0.83214916  0.21516019  0.98333541    -0.10760
H1240       H  0.89791787  0.26335767  0.98019477     0.08920
H1241       H  0.80955522  0.27977402  0.02369623     0.06450
H1242       H  0.82347795  0.19240490  0.97499335     0.06300
C1243       C  0.72296680  0.22364724  0.01393170     0.03330
C1244       C  0.75480663  0.21460295  0.00655110    -0.12820
C1245       C  0.77527014  0.23748537  0.99344911     0.00830
C1246       C  0.76151621  0.26655963  0.98471650    -0.11340
C1247       C  0.73611413  0.27876861  0.00229851     0.03390
C1248       C  0.71575436  0.25669247  0.01655119    -0.10760
H1249       H  0.76316181  0.19044617  0.00975073     0.08920
H1250       H  0.77412747  0.28205110  0.96914684     0.06450
H1251       H  0.69419936  0.26482542  0.02807467     0.06300
C1252       C  0.72326433  0.36699627  0.98884921     0.03330
C1253       C  0.75598724  0.37485214  0.99021288    -0.12820
C1254       C  0.77721857  0.35398216  0.00526489     0.00830
C1255       C  0.76442607  0.32693750  0.01991690    -0.11340
C1256       C  0.73614591  0.31389257  0.00840216     0.03330
C1257       C  0.71428665  0.33490203  0.99455217    -0.10760
H1258       H  0.76451153  0.39721401  0.98063276     0.08920
H1259       H  0.77864312  0.31346979  0.03627578     0.06450
H1260       H  0.69074411  0.32636168  0.98950372     0.06300
C1261       C  0.86854165  0.03658686  0.32145743     0.03330
C1262       C  0.83632868  0.03788432  0.33125561    -0.12820
C1263       C  0.81392650  0.05150663  0.31043883     0.00830
C1264       C  0.82541793  0.06612836  0.28252529    -0.11340
C1265       C  0.85357228  0.05537471  0.26830820     0.03330
C1266       C  0.87612472  0.04160205  0.28858391    -0.10760
H1267       H  0.82900471  0.02971918  0.35481600     0.08920
H1268       H  0.81025883  0.08170544  0.26924922     0.06450
H1269       H  0.89936847  0.03559993  0.27931267     0.06300
C1270       C  0.72422346  0.05700908  0.32213241     0.03330
C1271       C  0.75689848  0.05881837  0.33034461    -0.12820
C1272       C  0.77938065  0.04366503  0.31077186     0.00830
C1273       C  0.76801098  0.02588980  0.28476950    -0.11340
C1274       C  0.73894873  0.03380156  0.27053830     0.03330
C1275       C  0.71593338  0.04753909  0.29038164    -0.10760
H1276       H  0.76447308  0.07086514  0.35207391     0.08920
H1277       H  0.78396422  0.01056658  0.27211566     0.06450
H1278       H  0.69215025  0.04984299  0.28119910     0.06300
C1279       C  0.72445589  0.02625867  0.17923887     0.03330
C1280       C  0.71792774  0.02377447  0.21285613    -0.12820
C1281       C  0.73897709  0.03759463  0.23471603     0.00830
C1282       C  0.76428373  0.05425918  0.22177206    -0.11340
C1283       C  0.77747030  0.04507158  0.19241613     0.03330
C1284       C  0.75641223  0.03263986  0.16957771    -0.10760
H1285       H  0.69643271  0.01284260  0.22160790     0.08920
H1286       H  0.77743255  0.06939794  0.23710243     0.06450
H1287       H  0.76444648  0.02961679  0.14504770     0.06300
C1288       C  0.86519051  0.06398585  0.17710390     0.03330
C1289       C  0.87321009  0.06497594  0.21041119    -0.12820
C1290       C  0.85307661  0.05052337  0.23267563     0.00830
C1291       C  0.82732622  0.03401903  0.22039199    -0.11340
C1292       C  0.81309494  0.04379562  0.19167551     0.03330
C1293       C  0.83318742  0.05715054  0.16836013    -0.10760
H1294       H  0.89544392  0.07499388  0.21842384     0.08920
H1295       H  0.81458042  0.01866974  0.23601401     0.06450
H1296       H  0.82452483  0.06050249  0.14411868     0.06300
C1297       C  0.54779309  0.22184574  0.31815888     0.03330
C1298       C  0.53444055  0.25146715  0.32722272    -0.12820
C1299       C  0.53977604  0.27824187  0.30820874     0.00830
C1300       C  0.55987249  0.27539903  0.28163986    -0.11340
C1301       C  0.56812297  0.24564012  0.26825984     0.03330
C1302       C  0.56269419  0.21861167  0.28759975    -0.10760
H1303       H  0.52057206  0.25377916  0.34906151     0.08920
H1304       H  0.56535991  0.29728417  0.26949401     0.06450
H1305       H  0.57001577  0.19531221  0.27921983     0.06300
C1306       C  0.53536971  0.36464769  0.32184678     0.03330
C1307       C  0.53419344  0.33253200  0.33220208    -0.12820
C1308       C  0.52246091  0.30904115  0.31158519     0.00830
C1309       C  0.50639595  0.31916720  0.28388906    -0.11340
C1310       C  0.51677225  0.34718583  0.26856150     0.03330
C1311       C  0.52942503  0.37105341  0.28872803    -0.10760
H1312       H  0.54274392  0.32522959  0.35553189     0.08920
H1313       H  0.49399622  0.30121959  0.27016701     0.06450
H1314       H  0.53604747  0.39383348  0.27865445     0.06300
C1315       C  0.55925044  0.22592648  0.17935723     0.03330
C1316       C  0.56617120  0.21932817  0.21226678    -0.12820
C1317       C  0.57648488  0.24427947  0.23271561     0.00830
C1318       C  0.58512865  0.27283910  0.21731657    -0.11340
C1319       C  0.56804657  0.28205328  0.18993282     0.03330
C1320       C  0.55624963  0.25810522  0.17006381    -0.10760
H1321       H  0.56257581  0.19570028  0.22187893     0.08920
H1322       H  0.59675488  0.29141378  0.23089309     0.06450
H1323       H  0.54371968  0.26446002  0.14821862     0.06300
C1324       C  0.54468737  0.36916993  0.18291310     0.03330
C1325       C  0.53041016  0.37296898  0.21366663    -0.12820
C1326       C  0.52419403  0.34594596  0.23290804     0.00830
C1327       C  0.53102284  0.31601496  0.21927736    -0.11340
C1328       C  0.55088654  0.31274022  0.19269245     0.03330
C1329       C  0.55689588  0.33924784  0.17363928    -0.10760
H1330       H  0.52354949  0.39643398  0.22197186     0.08920
H1331       H  0.52518947  0.29424957  0.23152420     0.06450
H1332       H  0.57063853  0.33670047  0.15172955     0.06300
O1333       O  0.95622251  0.49308728  0.00311305    -0.86280
O1334       O  0.63515999  0.49416010  0.99662608    -0.86450
O1335       O  0.54602339  0.45500365  0.44754898    -0.88120
O1336       O  0.54726711  0.45614278  0.05416332    -0.86870
O1337       O  0.54578098  0.49506836  0.09306102    -0.86460
O1338       O  0.54691802  0.49392500  0.40872543    -0.87840
O1339       O  0.59759774  0.45484110  0.99712812    -0.86310
O1340       O  0.99469091  0.45446875  0.00213104    -0.85900
Zr1341     Zr  0.54599461  0.48095538  0.00058878     2.84310
O1342       O  0.57742250  0.01337140  0.03331204    -1.07880
O1343       O  0.51405387  0.01298971  0.46781684    -1.08600
C1344       C  0.96548768  0.46366797  0.00350358     1.06820
C1345       C  0.62651042  0.46469792  0.99550927     1.06770
C1346       C  0.54643236  0.46456849  0.41787928     1.09750
C1347       C  0.54665210  0.46573401  0.08386188     1.07530
H1348       H  0.59123269  0.00050908  0.45407381     0.33090
O1349       O  0.57786928  0.01325757  0.46790010    -1.28830
H1350       H  0.50042511  0.00032163  0.04699783     0.32760
O1351       O  0.51358895  0.01324272  0.03323843    -1.30510
O1352       O  0.63519054  0.09696718  0.00522111    -0.86280
O1353       O  0.95553954  0.09711067  0.99614135    -0.87770
O1354       O  0.59757583  0.04985769  0.40934643    -0.86350
O1355       O  0.59708226  0.04268337  0.09174749    -0.86400
O1356       O  0.99341638  0.04966094  0.09106941    -0.86120
O1357       O  0.99458510  0.04309000  0.40928604    -0.85920
O1358       O  0.54581425  0.13558239  0.44666961    -0.86290
O1359       O  0.54379182  0.13587264  0.05293085    -0.85760
O1360       O  0.54515837  0.09631794  0.40801648    -0.86820
O1361       O  0.54529999  0.09757450  0.09235219    -0.85980
O1362       O  0.63498285  0.05096932  0.44923273    -0.86380
O1363       O  0.95593588  0.04022221  0.44811391    -0.86100
O1364       O  0.95526977  0.05101856  0.05180409    -0.85750
O1365       O  0.63507615  0.04091531  0.05244803    -0.86160
O1366       O  0.59695774  0.13579439  0.00270932    -0.86450
O1367       O  0.99338144  0.13617468  0.99688636    -0.87790
Zr1368     Zr  0.60885679  0.04574176  0.00081368     2.83100
Zr1369     Zr  0.98178274  0.04521931  0.00014396     2.83500
Zr1370     Zr  0.54599208  0.04538777  0.43551996     2.84090
Zr1371     Zr  0.54528317  0.04600356  0.06544183     2.83360
Zr1372     Zr  0.54507670  0.11016698  0.99996888     2.84220
O1373       O  0.51330439  0.07788221  0.03249480    -1.08360
O1374       O  0.57749954  0.07802140  0.46785353    -1.07860
C1375       C  0.62604981  0.12632740  0.00541115     1.06800
C1376       C  0.96439194  0.12656963  0.99510367     1.09420
C1377       C  0.62643239  0.05191946  0.41945682     1.06970
C1378       C  0.62613959  0.04013838  0.08212562     1.07330
C1379       C  0.96440749  0.05199652  0.08145064     1.06910
C1380       C  0.96553879  0.04061062  0.41860917     1.06470
C1381       C  0.54545907  0.12564974  0.41712286     1.06890
C1382       C  0.54458893  0.12680715  0.08275038     1.06400
H1383       H  0.50026455  0.09027753  0.45351209     0.33080
O1384       O  0.51345281  0.07749565  0.46744473    -1.29460
H1385       H  0.59007792  0.09118562  0.04702413     0.33100
O1386       O  0.57702298  0.07824149  0.03318870    -1.30840
C1387       C  0.54485617  0.39509957  0.15893335    -0.05260
C1388       C  0.52823884  0.39036278  0.13014411    -0.32690
C1389       C  0.52900797  0.41299231  0.10558556     0.36560
C1390       C  0.54632890  0.44124831  0.10952521    -0.05620
C1391       C  0.56271328  0.44627498  0.13863498    -0.32590
C1392       C  0.56218328  0.42328964  0.16322774     0.36470
H1393       H  0.51466509  0.36878917  0.12661779     0.16840
O1394       O  0.01184271  0.40768403  0.07819272    -0.60090
H1395       H  0.57639230  0.46777852  0.14207113     0.16850
O1396       O  0.57980120  0.42784833  0.19055905    -0.60180
H1397       H  0.56614436  0.44071092  0.20503820     0.43850
H1398       H  0.02530505  0.39345664  0.06485514     0.43800
C1399       C  0.54634711  0.15208814  0.10767741    -0.05260
C1400       C  0.56234506  0.18027846  0.10024802    -0.32690
C1401       C  0.56649004  0.20410857  0.12331757     0.36560
C1402       C  0.55410017  0.20047473  0.15477595    -0.05620
C1403       C  0.53770109  0.17233360  0.16223295    -0.32590
C1404       C  0.53396707  0.14816466  0.13905104     0.36470
H1405       H  0.57275614  0.18352679  0.07660887     0.16840
O1406       O  0.58454903  0.23005584  0.11538568    -0.60090
H1407       H  0.52759411  0.16905617  0.18596994     0.16850
O1408       O  0.51738628  0.12128032  0.14702457    -0.60180
H1409       H  0.53270704  0.10752426  0.15864184     0.43850
H1410       H  0.57153123  0.24262509  0.10006945     0.43800
C1411       C  0.54215164  0.39120737  0.34498688    -0.05260
C1412       C  0.52605808  0.42033536  0.34094971    -0.32690
C1413       C  0.52825627  0.44470134  0.36382683     0.36560
C1414       C  0.54595219  0.44005589  0.39218883    -0.05620
C1415       C  0.56314808  0.41167720  0.39586201    -0.32590
C1416       C  0.56188544  0.38758165  0.37237153     0.36470
H1417       H  0.51059659  0.42398101  0.32047447     0.16840
O1418       O  0.51130042  0.47222403  0.35913181    -0.60090
H1419       H  0.57794413  0.40827227  0.41690523     0.16850
O1420       O  0.58120520  0.36145256  0.37570784    -0.60180
H1421       H  0.57431592  0.35076158  0.39582679     0.43850
H1422       H  0.52472048  0.48552843  0.34492606     0.43800
C1423       C  0.54555370  0.14959770  0.39135764    -0.05260
C1424       C  0.57381094  0.15607634  0.37499735    -0.32690
C1425       C  0.57457189  0.17869653  0.35024652     0.36560
C1426       C  0.54664663  0.19490453  0.34123323    -0.05620
C1427       C  0.51813548  0.18742669  0.35692093    -0.32590
C1428       C  0.51745338  0.16492182  0.38190002     0.36470
H1429       H  0.59546109  0.14391723  0.38182215     0.16840
O1430       O  0.60293369  0.18552415  0.33576764    -0.60090
H1431       H  0.99636828  0.19931922  0.35000661     0.16850
O1432       O  0.98920452  0.15707444  0.39621570    -0.60180
H1433       H  0.97965667  0.17741154  0.40356676     0.43850
H1434       H  0.61180560  0.20350030  0.34830924     0.43800
C1435       C  0.89113603  0.06420221  0.15281531    -0.05260
C1436       C  0.91902827  0.04714530  0.15998990    -0.32690
C1437       C  0.94314275  0.04347305  0.13730796     0.36560
C1438       C  0.93963784  0.05644755  0.10629297    -0.05620
C1439       C  0.91209960  0.07399974  0.09907616    -0.32590
C1440       C  0.88796332  0.07799560  0.12204501     0.36470
H1441       H  0.92184812  0.03549602  0.18309227     0.16840
O1442       O  0.96921348  0.02553139  0.14519022    -0.60090
H1443       H  0.90931769  0.08486605  0.07557309     0.16850
O1444       O  0.86206000  0.09634851  0.11459933    -0.60180
H1445       H  0.85064536  0.08454298  0.09749511     0.43850
H1446       H  0.98328420  0.04014313  0.15726225     0.43800
C1447       C  0.69801557  0.02643024  0.15526497    -0.05260
C1448       C  0.70383216  0.01771673  0.12313881    -0.32690
C1449       C  0.68128398  0.02311008  0.09909852     0.36560
C1450       C  0.65110967  0.03549001  0.10695743    -0.05620
C1451       C  0.64479988  0.04328722  0.13914706    -0.32590
C1452       C  0.66792232  0.03955688  0.16300350     0.36470
H1453       H  0.72629685  0.00739157  0.11614450     0.16840
O1454       O  0.68924522  0.01615115  0.06792099    -0.60090
H1455       H  0.62215720  0.05354326  0.14582618     0.16850
O1456       O  0.66151167  0.05132757  0.19315997    -0.60180
H1457       H  0.64608281  0.03631937  0.20275789     0.43850
H1458       H  0.70055700  0.03522941  0.05991044     0.43800
C1459       C  0.65186472  0.05565442  0.39522485    -0.05260
C1460       C  0.64524859  0.06959931  0.36520616    -0.32690
C1461       C  0.66884409  0.07229852  0.34152769     0.36560
C1462       C  0.69965219  0.06054321  0.34763709    -0.05620
C1463       C  0.70632260  0.04781309  0.37820872    -0.32590
C1464       C  0.68305639  0.04563450  0.40187889     0.36470
H1465       H  0.62170947  0.07856294  0.36004647     0.16840
O1466       O  0.66183874  0.08745830  0.31311599    -0.60090
H1467       H  0.72947144  0.03800126  0.38355493     0.16850
O1468       O  0.69078170  0.03180938  0.43078027    -0.60180
H1469       H  0.70065376  0.04901869  0.44365719     0.43850
H1470       H  0.64525726  0.07439182  0.30261405     0.43800
C1471       C  0.89438266  0.03480278  0.34540173    -0.05260
C1472       C  0.91837431  0.05783907  0.34368985    -0.32690
C1473       C  0.94177296  0.05964157  0.36724934     0.36560
C1474       C  0.94134785  0.03841033  0.39334208    -0.05620
C1475       C  0.91759578  0.01516254  0.39517859    -0.32590
C1476       C  0.89432931  0.01304995  0.37121418     0.36470
H1477       H  0.91838722  0.07533285  0.32451211     0.16840
O1478       O  0.96374215  0.08357950  0.36571389    -0.60090
H1479       H  0.91728633  0.49846663  0.41506685     0.16850
O1480       O  0.87181680  0.48971395  0.37323600    -0.60180
H1481       H  0.88003585  0.47195603  0.35983934     0.43850
H1482       H  0.98033736  0.07569117  0.35077669     0.43800
C1483       C  0.69913875  0.39282482  0.98610726    -0.05260
C1484       C  0.70510180  0.42161542  0.00224075    -0.32690
C1485       C  0.68210159  0.44533175  0.00453452     0.36560
C1486       C  0.65174383  0.44042340  0.99166031    -0.05620
C1487       C  0.64580914  0.41218335  0.47454823    -0.32590
C1488       C  0.66929819  0.38858862  0.47136795     0.36470
H1489       H  0.72745487  0.42553611  0.01434754     0.16840
O1490       O  0.68917690  0.47260743  0.02100286    -0.60090
H1491       H  0.62297268  0.40848108  0.46331692     0.16850
O1492       O  0.66329222  0.36227463  0.45276773    -0.60180
H1493       H  0.64569279  0.35095450  0.46362326     0.43850
H1494       H  0.70050337  0.48623772  0.00529808     0.43800
C1495       C  0.65070837  0.15114187  0.00929790    -0.05260
C1496       C  0.64471192  0.18196913  0.49795469    -0.32690
C1497       C  0.66748239  0.20588515  0.50043851     0.36560
C1498       C  0.69711082  0.19954370  0.01509752    -0.05620
C1499       C  0.70280588  0.16883562  0.02726419    -0.32590
C1500       C  0.68011936  0.14470869  0.02421093     0.36470
H1501       H  0.62254577  0.18745287  0.48603038     0.16840
O1502       O  0.66131643  0.23465367  0.48606435    -0.60090
H1503       H  0.72507528  0.16327094  0.03888687     0.16850
O1504       O  0.68676425  0.11514611  0.03655292    -0.60180
H1505       H  0.69959550  0.10429585  0.01977134     0.43850
H1506       H  0.64566084  0.24538307  0.50024997     0.43800
C1507       C  0.93921717  0.15104851  0.99101039    -0.05260
C1508       C  0.90862377  0.14489822  0.00240723    -0.32690
C1509       C  0.88425822  0.16735216  0.99909083     0.36560
C1510       C  0.88973590  0.19658113  0.98292196    -0.05620
C1511       C  0.92033386  0.20220345  0.47072050    -0.32590
C1512       C  0.94502276  0.18027144  0.47542100     0.36470
H1513       H  0.90371797  0.12291998  0.01509427     0.16840
O1514       O  0.85595614  0.16131758  0.01407189    -0.60090
H1515       H  0.92557260  0.22395702  0.45789886     0.16850
O1516       O  0.97465125  0.18756771  0.46420980    -0.60180
H1517       H  0.98422593  0.20113745  0.48113704     0.43850
H1518       H  0.84575884  0.14441751  0.00103942     0.43800
C1519       C  0.89164609  0.39241180  0.01197296    -0.05260
C1520       C  0.92308231  0.38522823  0.02058257    -0.32690
C1521       C  0.94739409  0.40750842  0.01670486     0.36560
C1522       C  0.94056771  0.43873806  0.00618326    -0.05620
C1523       C  0.90917020  0.44629403  0.49829531    -0.32590
C1524       C  0.88507589  0.42355682  0.50037981     0.36470
H1525       H  0.92937549  0.36198915  0.02976283     0.16840
O1526       O  0.97779756  0.39824225  0.02328271    -0.60090
H1527       H  0.90326497  0.46976521  0.48925081     0.16850
O1528       O  0.85580318  0.43157617  0.48854888    -0.60180
H1529       H  0.84673236  0.44681338  0.50435826     0.43850
H1530       H  0.98550425  0.38788575  0.00326306     0.43800
C1531       C  0.86707840  0.36660507  0.51087878     0.03330
C1532       C  0.87549907  0.33400543  0.00517893    -0.12820
C1533       C  0.85252574  0.31317545  0.99295198     0.00830
C1534       C  0.82410711  0.32708966  0.98284786    -0.11340
C1535       C  0.81212167  0.35362096  0.49891389     0.03330
C1536       C  0.83420539  0.37420820  0.51289953    -0.10760
H1537       H  0.89915837  0.32500676  0.00907150     0.08920
H1538       H  0.80889548  0.31390088  0.96748225     0.06450
H1539       H  0.82606613  0.39592035  0.52427661     0.06300
C1540       C  0.86520042  0.22252713  0.48278638     0.03330
C1541       C  0.87420332  0.25531276  0.48543847    -0.12820
C1542       C  0.85199688  0.27746965  0.49695248     0.00830
C1543       C  0.82398535  0.26498573  0.50916568    -0.11340
C1544       C  0.81083331  0.23746185  0.49622541     0.03330
C1545       C  0.83214800  0.21514493  0.48335056    -0.10760
H1546       H  0.89791401  0.26334425  0.48019147     0.08920
H1547       H  0.80956338  0.27976208  0.52371357     0.06450
H1548       H  0.82347283  0.19239251  0.47500527     0.06300
C1549       C  0.72296578  0.22364049  0.51395217     0.03330
C1550       C  0.75480634  0.21459343  0.50657794    -0.12820
C1551       C  0.77527177  0.23747218  0.49347234     0.00830
C1552       C  0.76151946  0.26654467  0.48473213    -0.11340
C1553       C  0.73611559  0.27875870  0.50230793     0.03390
C1554       C  0.71575389  0.25668646  0.51656375    -0.10760
H1555       H  0.76315993  0.19043679  0.50978308     0.08920
H1556       H  0.77413157  0.28203124  0.46915880     0.06450
H1557       H  0.69419718  0.26482239  0.52808181     0.06300
C1558       C  0.72326353  0.36698620  0.48884536     0.03330
C1559       C  0.75598745  0.37484083  0.49020007    -0.12820
C1560       C  0.77722129  0.35397149  0.50524991     0.00830
C1561       C  0.76443039  0.32693065  0.51990960    -0.11340
C1562       C  0.73614824  0.31388435  0.50840252     0.03330
C1563       C  0.71428633  0.33489242  0.49455405    -0.10760
H1564       H  0.76451050  0.39720133  0.48061560     0.08920
H1565       H  0.77865013  0.31346533  0.53626753     0.06450
H1566       H  0.69074253  0.32635192  0.48951193     0.06300
C1567       C  0.86854078  0.03658682  0.82145278     0.03330
C1568       C  0.83632804  0.03788598  0.83125094    -0.12820
C1569       C  0.81392661  0.05150933  0.81043435     0.00830
C1570       C  0.82541860  0.06613013  0.78252039    -0.11340
C1571       C  0.85357278  0.05537540  0.76830348     0.03330
C1572       C  0.87612441  0.04160176  0.78857939    -0.10760
H1573       H  0.82900367  0.02972133  0.85481139     0.08920
H1574       H  0.81026012  0.08170774  0.76924416     0.06450
H1575       H  0.89936806  0.03559873  0.77930844     0.06300
C1576       C  0.72422344  0.05701011  0.82212951     0.03330
C1577       C  0.75689855  0.05882025  0.83034126    -0.12820
C1578       C  0.77938081  0.04366798  0.81076769     0.00830
C1579       C  0.76801124  0.02589229  0.78476584    -0.11340
C1580       C  0.73894906  0.03380387  0.77053478     0.03330
C1581       C  0.71593339  0.04754065  0.79037846    -0.10760
H1582       H  0.76447314  0.07086670  0.85207074     0.08920
H1583       H  0.78396455  0.01056918  0.77211202     0.06450
H1584       H  0.69215014  0.04984426  0.78119611     0.06300
C1585       C  0.72445619  0.02625896  0.67923591     0.03330
C1586       C  0.71792826  0.02377563  0.71285316    -0.12820
C1587       C  0.73897762  0.03759634  0.73471245     0.00830
C1588       C  0.76428480  0.05425986  0.72176786    -0.11340
C1589       C  0.77747106  0.04507148  0.69241187     0.03330
C1590       C  0.75641248  0.03263951  0.66957407    -0.10760
H1591       H  0.69643311  0.01284427  0.72160533     0.08920
H1592       H  0.77743404  0.06939861  0.73709782     0.06450
H1593       H  0.76444620  0.02961579  0.64504394     0.06300
C1594       C  0.86519256  0.06398264  0.67709852     0.03330
C1595       C  0.87321156  0.06497420  0.71040601    -0.12820
C1596       C  0.85307728  0.05052331  0.73267094     0.00830
C1597       C  0.82732687  0.03401891  0.72038768    -0.11340
C1598       C  0.81309588  0.04379487  0.69167091     0.03330
C1599       C  0.83318912  0.05714797  0.66835484    -0.10760
H1600       H  0.89544545  0.07499206  0.71841859     0.08920
H1601       H  0.81458082  0.01867024  0.73601010     0.06450
H1602       H  0.82452675  0.06049919  0.64411321     0.06300
C1603       C  0.54778502  0.22184721  0.81815924     0.03330
C1604       C  0.53443160  0.25146860  0.82722178    -0.12820
C1605       C  0.53976843  0.27824310  0.80820780     0.00830
C1606       C  0.55986659  0.27539981  0.78164027    -0.11340
C1607       C  0.56811773  0.24564072  0.76826107     0.03330
C1608       C  0.56268762  0.21861261  0.78760093    -0.10760
H1609       H  0.52056198  0.25378084  0.84905981     0.08920
H1610       H  0.56535516  0.29728479  0.76949468     0.06450
H1611       H  0.57001011  0.19531309  0.77922197     0.06300
C1612       C  0.53535996  0.36464956  0.82184442     0.03330
C1613       C  0.53418447  0.33253394  0.83219981    -0.12820
C1614       C  0.52245334  0.30904259  0.81158251     0.00830
C1615       C  0.50639020  0.31916799  0.78388498    -0.11340
C1616       C  0.51676687  0.34718679  0.76855802     0.03330
C1617       C  0.52941643  0.37105533  0.78872557    -0.10760
H1618       H  0.54273491  0.32523249  0.85553008     0.08920
H1619       H  0.49399218  0.30121991  0.77016196     0.06450
H1620       H  0.53603784  0.39383612  0.77865290     0.06300
C1621       C  0.55925393  0.22592675  0.67935722     0.03330
C1622       C  0.56617063  0.21932850  0.71226774    -0.12820
C1623       C  0.57648293  0.24427961  0.73271765     0.00830
C1624       C  0.58512912  0.27283890  0.71731954    -0.11340
C1625       C  0.56805003  0.28205350  0.68993409     0.03330
C1626       C  0.55625535  0.25810562  0.67006327    -0.10760
H1627       H  0.56257308  0.19570086  0.72187969     0.08920
H1628       H  0.59675433  0.29141331  0.73089737     0.06450
H1629       H  0.54372826  0.26446069  0.64821647     0.06300
C1630       C  0.54469156  0.36917024  0.68291296     0.03330
C1631       C  0.53041093  0.37296927  0.71366472    -0.12820
C1632       C  0.52419283  0.34594637  0.73290544     0.00830
C1633       C  0.53102337  0.31601529  0.71927551    -0.11340
C1634       C  0.55088980  0.31274056  0.69269253     0.03330
C1635       C  0.55690117  0.33924831  0.67364025    -0.10760
H1636       H  0.52354895  0.39643425  0.72196894     0.08920
H1637       H  0.52518850  0.29424990  0.73152157     0.06450
H1638       H  0.57064583  0.33670109  0.65173181     0.06300
O1639       O  0.95622346  0.49308125  0.50311070    -0.86280
O1640       O  0.63516359  0.49415764  0.49662843    -0.86450
O1641       O  0.54601910  0.45500368  0.94754800    -0.88120
O1642       O  0.54727001  0.45614283  0.55416414    -0.86870
O1643       O  0.54578313  0.49506842  0.59306182    -0.86460
O1644       O  0.54691325  0.49392502  0.90872429    -0.87840
O1645       O  0.59760022  0.45483981  0.49713006    -0.86310
O1646       O  0.99469311  0.45446403  0.50212836    -0.85900
Zr1647     Zr  0.54599700  0.48095498  0.50058979     2.84310
O1648       O  0.57742093  0.01337059  0.53331248    -1.07880
O1649       O  0.51405512  0.01299120  0.96781652    -1.08600
C1650       C  0.96548953  0.46366201  0.50349991     1.06820
C1651       C  0.62651341  0.46469542  0.49551142     1.06770
C1652       C  0.54642694  0.46456851  0.91787827     1.09750
C1653       C  0.54665490  0.46573413  0.58386260     1.07530
H1654       H  0.59123359  0.00051092  0.95407363     0.33090
O1655       O  0.57787037  0.01325938  0.96790012    -1.28830
H1656       H  0.50042420  0.00032085  0.54699829     0.32760
O1657       O  0.51358787  0.01324192  0.53323868    -1.30510
O1658       O  0.63518856  0.09696503  0.50522295    -0.86280
O1659       O  0.95555064  0.09710276  0.49614106    -0.87770
O1660       O  0.59757686  0.04985924  0.90934624    -0.86350
O1661       O  0.59708115  0.04268359  0.59174719    -0.86400
O1662       O  0.99342297  0.04965737  0.59106806    -0.86120
O1663       O  0.99457814  0.04309358  0.90928700    -0.85920
O1664       O  0.54581319  0.13558468  0.94667112    -0.86290
O1665       O  0.54379265  0.13587304  0.55292966    -0.85760
O1666       O  0.54515707  0.09632063  0.90801758    -0.86820
O1667       O  0.54529998  0.09757515  0.59235135    -0.85980
O1668       O  0.63498440  0.05097002  0.94923214    -0.86380
O1669       O  0.95592784  0.04022731  0.94811401    -0.86100
O1670       O  0.95527720  0.05101308  0.55180197    -0.85750
O1671       O  0.63507466  0.04091407  0.55244741    -0.86160
O1672       O  0.59695625  0.13579277  0.50271007    -0.86450
O1673       O  0.99339117  0.13616768  0.49688911    -0.87790
Zr1674     Zr  0.60885505  0.04574019  0.50081363     2.83100
Zr1675     Zr  0.98179198  0.04521255  0.50014312     2.83500
Zr1676     Zr  0.54599316  0.04538986  0.93552010     2.84090
Zr1677     Zr  0.54528180  0.04600339  0.56544192     2.83360
Zr1678     Zr  0.54507552  0.11016573  0.49996809     2.84220
O1679       O  0.51330291  0.07788167  0.53249454    -1.08360
O1680       O  0.57750083  0.07802309  0.96785394    -1.07860
C1681       C  0.62604789  0.12632517  0.50541363     1.06800
C1682       C  0.96440199  0.12656180  0.49510561     1.09420
C1683       C  0.62643362  0.05192040  0.91945625     1.06970
C1684       C  0.62613834  0.04013793  0.58212502     1.07330
C1685       C  0.96441415  0.05199242  0.58144867     1.06910
C1686       C  0.96553168  0.04061450  0.91860951     1.06470
C1687       C  0.54545707  0.12565235  0.91712431     1.06890
C1688       C  0.54458994  0.12680781  0.58274932     1.06400
H1689       H  0.50026547  0.09027924  0.95351285     0.33080
O1690       O  0.51345394  0.07749731  0.96744521    -1.29460
H1691       H  0.59007640  0.09118444  0.54702369     0.33100
O1692       O  0.57702146  0.07824040  0.53318820    -1.30840
C1693       C  0.54486100  0.39509945  0.65893307    -0.05260
C1694       C  0.52824289  0.39036282  0.63014434    -0.32690
C1695       C  0.52901138  0.41299253  0.60558607     0.36560
C1696       C  0.54633243  0.44124844  0.60952562    -0.05620
C1697       C  0.56271787  0.44627482  0.63863479    -0.32590
C1698       C  0.56218851  0.42328927  0.66322726     0.36470
H1699       H  0.51466887  0.36878935  0.62661831     0.16840
O1700       O  0.01183785  0.40768439  0.57819222    -0.60090
H1701       H  0.57639708  0.46777828  0.64207066     0.16850
O1702       O  0.57980714  0.42784761  0.69055815    -0.60180
H1703       H  0.56615021  0.44070900  0.70503830     0.43850
H1704       H  0.02529897  0.39345627  0.56485418     0.43800
C1705       C  0.54634953  0.15208888  0.60767641    -0.05260
C1706       C  0.56235182  0.18027713  0.60024852    -0.32690
C1707       C  0.56649763  0.20410690  0.62331854     0.36560
C1708       C  0.55410419  0.20047487  0.65477571    -0.05620
C1709       C  0.53770119  0.17233567  0.66223120    -0.32590
C1710       C  0.53396636  0.14816707  0.63904897     0.36470
H1711       H  0.57276538  0.18352396  0.57661028     0.16840
O1712       O  0.58456044  0.23005201  0.61538846    -0.60090
H1713       H  0.52759150  0.16905961  0.68596719     0.16850
O1714       O  0.51738149  0.12128486  0.64702099    -0.60180
H1715       H  0.53269954  0.10752683  0.65863958     0.43850
H1716       H  0.57154553  0.24262288  0.60007105     0.43800
C1717       C  0.54214111  0.39120894  0.84498471    -0.05260
C1718       C  0.52604157  0.42033416  0.84095245    -0.32690
C1719       C  0.52824038  0.44469938  0.86383048     0.36560
C1720       C  0.54594408  0.44005600  0.89218780    -0.05620
C1721       C  0.56314518  0.41167981  0.89585606    -0.32590
C1722       C  0.56188095  0.38758489  0.87236490     0.36470
H1723       H  0.51057539  0.42397775  0.82048045     0.16840
O1724       O  0.51127793  0.47221898  0.85914147    -0.60090
H1725       H  0.57794641  0.40827649  0.91689576     0.16850
O1726       O  0.58120460  0.36145799  0.87569578    -0.60180
H1727       H  0.57432049  0.35076495  0.89581542     0.43850
H1728       H  0.52469166  0.48552685  0.84493287     0.43800
C1729       C  0.54554998  0.14960062  0.89135948    -0.05260
C1730       C  0.57380713  0.15608220  0.87500041    -0.32690
C1731       C  0.57456663  0.17870216  0.85024945     0.36560
C1732       C  0.54664003  0.19490702  0.84123476    -0.05620
C1733       C  0.51812913  0.18742694  0.85692182    -0.32590
C1734       C  0.51744846  0.16492206  0.88190101     0.36470
H1735       H  0.59545828  0.14392539  0.88182610     0.16840
O1736       O  0.60292829  0.18553265  0.83577169    -0.60090
H1737       H  0.99636642  0.19931589  0.84999205     0.16850
O1738       O  0.98919704  0.15707104  0.89620232    -0.60180
H1739       H  0.97962813  0.17740912  0.90352258     0.43850
H1740       H  0.61179745  0.20351036  0.84831304     0.43800
C1741       C  0.89113883  0.06419826  0.65281024    -0.05260
C1742       C  0.91903183  0.04714321  0.65998668    -0.32690
C1743       C  0.94314761  0.04347130  0.63730595     0.36560
C1744       C  0.93964345  0.05644408  0.60629016    -0.05620
C1745       C  0.91210441  0.07399431  0.59907137    -0.32590
C1746       C  0.88796681  0.07798993  0.62203900     0.36470
H1747       H  0.92185145  0.03549522  0.68308972     0.16840
O1748       O  0.96921902  0.02553155  0.64519028    -0.60090
H1749       H  0.90932281  0.08485924  0.57556760     0.16850
O1750       O  0.86206289  0.09634109  0.61459114    -0.60180
H1751       H  0.85064937  0.08453379  0.59748741     0.43850
H1752       H  0.98328871  0.04014494  0.65726150     0.43800
C1753       C  0.69801546  0.02643065  0.65526274    -0.05260
C1754       C  0.70383093  0.01771519  0.62313700    -0.32690
C1755       C  0.68128223  0.02310797  0.59909717     0.36560
C1756       C  0.65110870  0.03548971  0.60695634    -0.05620
C1757       C  0.64480006  0.04328902  0.63914562    -0.32590
C1758       C  0.66792298  0.03955894  0.66300153     0.36470
H1759       H  0.72629509  0.00738880  0.61614271     0.16840
O1760       O  0.68924206  0.01614641  0.56791987    -0.60090
H1761       H  0.62215800  0.05354643  0.64582477     0.16850
O1762       O  0.66151363  0.05133138  0.69315760    -0.60180
H1763       H  0.64608432  0.03632438  0.70275668     0.43850
H1764       H  0.70055480  0.03522341  0.55990763     0.43800
C1765       C  0.65186567  0.05565493  0.89522366    -0.05260
C1766       C  0.64524917  0.06959997  0.86520508    -0.32690
C1767       C  0.66884421  0.07229890  0.84152603     0.36560
C1768       C  0.69965234  0.06054332  0.84763467    -0.05620
C1769       C  0.70632312  0.04781274  0.87820607    -0.32590
C1770       C  0.68305730  0.04563432  0.90187682     0.36470
H1771       H  0.62171008  0.07856398  0.86004591     0.16840
O1772       O  0.66183840  0.08745879  0.81311453    -0.60090
H1773       H  0.72947200  0.03800067  0.88355166     0.16850
O1774       O  0.69078293  0.03180883  0.93077792    -0.60180
H1775       H  0.70065543  0.04901789  0.94365483     0.43850
H1776       H  0.64525701  0.07439214  0.80261267     0.43800
C1777       C  0.89438100  0.03480270  0.84539760    -0.05260
C1778       C  0.91837221  0.05783938  0.84368655    -0.32690
C1779       C  0.94176885  0.05964333  0.86724782     0.36560
C1780       C  0.94134205  0.03841317  0.89334145    -0.05620
C1781       C  0.91759063  0.01516469  0.89517692    -0.32590
C1782       C  0.89432618  0.01305064  0.87121069     0.36470
H1783       H  0.91838608  0.07533257  0.82450826     0.16840
O1784       O  0.96373769  0.08358165  0.86571312    -0.60090
H1785       H  0.91728451  0.49847131  0.91506862     0.16850
O1786       O  0.87181391  0.48972003  0.87323861    -0.60180
H1787       H  0.88003188  0.47196146  0.85984213     0.43850
H1788       H  0.98033380  0.07569340  0.85077690     0.43800
C1789       C  0.69913783  0.39281576  0.48610633    -0.05260
C1790       C  0.70510531  0.42160852  0.50223450    -0.32690
C1791       C  0.68210663  0.44532687  0.50452949     0.36560
C1792       C  0.65174594  0.44041884  0.49166174    -0.05620
C1793       C  0.64581147  0.41219056  0.97454108    -0.32590
C1794       C  0.66930249  0.38859796  0.97136170     0.36470
H1795       H  0.72746114  0.42552963  0.51433586     0.16840
O1796       O  0.68918681  0.47260452  0.52099240    -0.60090
H1797       H  0.62297727  0.40848894  0.96330476     0.16850
O1798       O  0.66330207  0.36228656  0.95275582    -0.60180
H1799       H  0.64570035  0.35096410  0.96360502     0.43850
H1800       H  0.70051048  0.48623217  0.50528319     0.43800
C1801       C  0.65070605  0.15113865  0.50930451    -0.05260
C1802       C  0.64470955  0.18197375  0.99795396    -0.32690
C1803       C  0.66747991  0.20589055  0.00043307     0.36560
C1804       C  0.69710823  0.19953879  0.51511389    -0.05620
C1805       C  0.70279819  0.16883209  0.52728642    -0.32590
C1806       C  0.68011167  0.14470585  0.52422841     0.36470
H1807       H  0.62253936  0.18745832  0.98603783     0.16840
O1808       O  0.66130795  0.23466077  0.98606500    -0.60090
H1809       H  0.72506376  0.16326799  0.53891701     0.16850
O1810       O  0.68675080  0.11514449  0.53657659    -0.60180
H1811       H  0.69958711  0.10429136  0.51980091     0.43850
H1812       H  0.64565602  0.24538727  0.00025705     0.43800
C1813       C  0.93922528  0.15103858  0.49101329    -0.05260
C1814       C  0.90862637  0.14487419  0.50238692    -0.32690
C1815       C  0.88425716  0.16732364  0.49906921     0.36560
C1816       C  0.88973729  0.19656475  0.48292274    -0.05620
C1817       C  0.92032663  0.20220794  0.97070051    -0.32590
C1818       C  0.94501277  0.18027165  0.97539794     0.36470
H1819       H  0.90371763  0.12288702  0.51505693     0.16840
O1820       O  0.85594767  0.16126976  0.51402729    -0.60090
H1821       H  0.92556154  0.22395547  0.95786607     0.16850
O1822       O  0.97463645  0.18755323  0.96416390    -0.60180
H1823       H  0.98422396  0.20113266  0.98107553     0.43850
H1824       H  0.84576391  0.14437555  0.50097587     0.43800
C1825       C  0.89165003  0.39240050  0.51195435    -0.05260
C1826       C  0.92308639  0.38521709  0.52056443    -0.32690
C1827       C  0.94739751  0.40749924  0.51669225     0.36560
C1828       C  0.94057042  0.43873036  0.50617524    -0.05620
C1829       C  0.90916716  0.44630250  0.99830516    -0.32590
C1830       C  0.88507196  0.42356685  0.00039525     0.36470
H1831       H  0.92938040  0.36197731  0.52974207     0.16840
O1832       O  0.97780091  0.39823372  0.52327176    -0.60090
H1833       H  0.90326231  0.46977276  0.98925796     0.16850
O1834       O  0.85579829  0.43158580  0.98856645    -0.60180
H1835       H  0.84672865  0.44682320  0.00437632     0.43850
H1836       H  0.98551012  0.38788074  0.50325124     0.43800
C1837       C  0.86707755  0.86660606  0.01088478     0.03330
C1838       C  0.87550234  0.83399211  0.50516832    -0.12820
C1839       C  0.85252819  0.81315897  0.49294821     0.00830
C1840       C  0.82411009  0.82707068  0.48283963    -0.11340
C1841       C  0.81212141  0.85362091  0.99891956     0.03330
C1842       C  0.83420441  0.87420803  0.01290622    -0.10760
H1843       H  0.89916100  0.82499330  0.50906403     0.08920
H1844       H  0.80889941  0.81387862  0.46747618     0.06450
H1845       H  0.82606450  0.89591954  0.02428406     0.06300
C1846       C  0.86520159  0.72252864  0.98278752     0.03330
C1847       C  0.87420426  0.75531413  0.98544167    -0.12820
C1848       C  0.85199743  0.77747031  0.99695626     0.00830
C1849       C  0.82398539  0.76498562  0.00916772    -0.11340
C1850       C  0.81083399  0.73746219  0.99622573     0.03330
C1851       C  0.83214927  0.71514602  0.98335059    -0.10760
H1852       H  0.89791509  0.76334591  0.98019568     0.08920
H1853       H  0.80956269  0.77976125  0.02371564     0.06450
H1854       H  0.82347465  0.69239374  0.97500426     0.06300
C1855       C  0.72296638  0.72364038  0.01395102     0.03330
C1856       C  0.75480695  0.71459334  0.00657663    -0.12820
C1857       C  0.77527250  0.73747225  0.99347141     0.00830
C1858       C  0.76152016  0.76654477  0.98473120    -0.11340
C1859       C  0.73611597  0.77875849  0.00230687     0.03390
C1860       C  0.71575475  0.75668624  0.01656313    -0.10760
H1861       H  0.76316061  0.69043672  0.00978161     0.08920
H1862       H  0.77413232  0.78203148  0.96915797     0.06450
H1863       H  0.69419848  0.76482222  0.02808201     0.06300
C1864       C  0.72326443  0.86698627  0.98884653     0.03330
C1865       C  0.75598807  0.87484117  0.99020394    -0.12820
C1866       C  0.77722100  0.85397128  0.00525418     0.00830
C1867       C  0.76442948  0.82692973  0.01991185    -0.11340
C1868       C  0.73614820  0.81388383  0.00840230     0.03330
C1869       C  0.71428705  0.83489224  0.99455307    -0.10760
H1870       H  0.76451150  0.89720230  0.98062129     0.08920
H1871       H  0.77864843  0.81346365  0.03626989     0.06450
H1872       H  0.69074359  0.82635195  0.98950877     0.06300
C1873       C  0.86854448  0.53658279  0.32145340     0.03330
C1874       C  0.83633149  0.53787923  0.33125178    -0.12820
C1875       C  0.81392899  0.55150185  0.31043569     0.00830
C1876       C  0.82542024  0.56612472  0.28252260    -0.11340
C1877       C  0.85357475  0.55537216  0.26830471     0.03330
C1878       C  0.87612750  0.54159930  0.28857996    -0.10760
H1879       H  0.82900781  0.52971330  0.35481198     0.08920
H1880       H  0.81026095  0.58170216  0.26924741     0.06450
H1881       H  0.89937143  0.53559813  0.27930857     0.06300
C1882       C  0.72422586  0.55700330  0.32213253     0.03330
C1883       C  0.75690100  0.55881026  0.33034517    -0.12820
C1884       C  0.77938290  0.54366046  0.31076905     0.00830
C1885       C  0.76801243  0.52588905  0.28476448    -0.11340
C1886       C  0.73895051  0.53380359  0.27053450     0.03330
C1887       C  0.71593550  0.54753891  0.29038004    -0.10760
H1888       H  0.76447577  0.57085281  0.35207680     0.08920
H1889       H  0.78396461  0.51056596  0.27210928     0.06450
H1890       H  0.69215227  0.54984521  0.28119816     0.06300
C1891       C  0.72445720  0.52626364  0.17923516     0.03330
C1892       C  0.71792945  0.52377858  0.21285236    -0.12820
C1893       C  0.73897838  0.53759901  0.23471237     0.00830
C1894       C  0.76428497  0.55426411  0.22176848    -0.11340
C1895       C  0.77747158  0.54507723  0.19241203     0.03330
C1896       C  0.75641336  0.53264552  0.16957374    -0.10760
H1897       H  0.69643493  0.51284567  0.22160409     0.08920
H1898       H  0.77743361  0.56940287  0.23709900     0.06450
H1899       H  0.76444744  0.52962270  0.14504364     0.06300
C1900       C  0.86519518  0.56398289  0.17709943     0.03330
C1901       C  0.87321477  0.56497187  0.21040699    -0.12820
C1902       C  0.85307887  0.55052249  0.23267158     0.00830
C1903       C  0.82732678  0.53402140  0.22038753    -0.11340
C1904       C  0.81309647  0.54379982  0.19167142     0.03330
C1905       C  0.83319086  0.55715193  0.16835576    -0.10760
H1906       H  0.89544990  0.57498678  0.21841976     0.08920
H1907       H  0.81457978  0.51867275  0.23600887     0.06450
H1908       H  0.82452870  0.56050489  0.14411430     0.06300
C1909       C  0.54777356  0.72184571  0.31815867     0.03330
C1910       C  0.53441635  0.75146591  0.32721961    -0.12820
C1911       C  0.53975268  0.77824077  0.30820597     0.00830
C1912       C  0.55985451  0.77539925  0.28164116    -0.11340
C1913       C  0.56810941  0.74564095  0.26826278     0.03330
C1914       C  0.56267924  0.71861235  0.28760180    -0.10760
H1915       H  0.52054491  0.75377722  0.34905652     0.08920
H1916       H  0.56534397  0.79728472  0.26949695     0.06450
H1917       H  0.57000469  0.69531350  0.27922359     0.06300
C1918       C  0.53535052  0.86464498  0.32184505     0.03330
C1919       C  0.53416710  0.83252951  0.33220016    -0.12820
C1920       C  0.52243690  0.80903992  0.31158048     0.00830
C1921       C  0.50637827  0.81916763  0.28388112    -0.11340
C1922       C  0.51675982  0.84718559  0.26855609     0.03330
C1923       C  0.52941202  0.87105153  0.28872521    -0.10760
H1924       H  0.54271171  0.82522580  0.35553173     0.08920
H1925       H  0.49398052  0.80122105  0.27015578     0.06450
H1926       H  0.53603968  0.89383050  0.27865264     0.06300
C1927       C  0.55925641  0.72592723  0.17935827     0.03330
C1928       C  0.56616974  0.71932928  0.21226946    -0.12820
C1929       C  0.57647888  0.74428067  0.23272050     0.00830
C1930       C  0.58512545  0.77284050  0.21732359    -0.11340
C1931       C  0.56804928  0.78205436  0.18993591     0.03330
C1932       C  0.55625843  0.75810590  0.17006340    -0.10760
H1933       H  0.56257155  0.69570158  0.22188103     0.08920
H1934       H  0.59674792  0.79141547  0.23090308     0.06450
H1935       H  0.54373410  0.76446030  0.14821476     0.06300
C1936       C  0.54468697  0.86916994  0.18291206     0.03330
C1937       C  0.53040553  0.87296874  0.21366347    -0.12820
C1938       C  0.52418737  0.84594566  0.23290387     0.00830
C1939       C  0.53101885  0.81601479  0.21927410    -0.11340
C1940       C  0.55088707  0.81274057  0.19269241     0.03330
C1941       C  0.55689802  0.83924840  0.17363996    -0.10760
H1942       H  0.52354296  0.89643357  0.22196765     0.08920
H1943       H  0.52518343  0.79424936  0.23151983     0.06450
H1944       H  0.57064364  0.83670160  0.15173211     0.06300
O1945       O  0.95621569  0.99308805  0.00311387    -0.86280
O1946       O  0.63516432  0.99415698  0.99662771    -0.86450
O1947       O  0.54602016  0.95500104  0.44754759    -0.88120
O1948       O  0.54726836  0.95614110  0.05416224    -0.86870
O1949       O  0.54578241  0.99506691  0.09305980    -0.86460
O1950       O  0.54691646  0.99392210  0.40872394    -0.87840
O1951       O  0.59760078  0.95483913  0.99712837    -0.86310
O1952       O  0.99468654  0.95447194  0.00213012    -0.85900
Zr1953     Zr  0.54599742  0.98095406  0.00058802     2.84310
O1954       O  0.57742000  0.51337266  0.03331241    -1.07880
O1955       O  0.51405450  0.51299175  0.46781808    -1.08600
C1956       C  0.96548279  0.96366898  0.00350258     1.06820
C1957       C  0.62651400  0.96469477  0.99551046     1.06770
C1958       C  0.54642896  0.96456558  0.41787772     1.09750
C1959       C  0.54665321  0.96573256  0.08386068     1.07530
H1960       H  0.59123281  0.50051155  0.45407517     0.33090
O1961       O  0.57786939  0.51326000  0.46790146    -1.28830
H1962       H  0.50042285  0.50032276  0.04699903     0.32760
O1963       O  0.51358643  0.51324393  0.03323944    -1.30510
O1964       O  0.63518671  0.59696735  0.00522208    -0.86280
O1965       O  0.95555234  0.59710503  0.99613912    -0.87770
O1966       O  0.59757630  0.54985881  0.40934708    -0.86350
O1967       O  0.59708092  0.54268513  0.09174695    -0.86400
O1968       O  0.99342412  0.54965655  0.09106670    -0.86120
O1969       O  0.99458576  0.54308870  0.40928403    -0.85920
O1970       O  0.54581033  0.63558527  0.44667255    -0.86290
O1971       O  0.54379298  0.63587486  0.05293122    -0.85760
O1972       O  0.54515447  0.59632114  0.40801907    -0.86820
O1973       O  0.54530041  0.59757633  0.09235238    -0.85980
O1974       O  0.63498403  0.55096791  0.44923293    -0.86380
O1975       O  0.95593642  0.54022017  0.44811175    -0.86100
O1976       O  0.95527856  0.55101548  0.05180049    -0.85750
O1977       O  0.63507375  0.54091713  0.05244650    -0.86160
O1978       O  0.59695447  0.63579514  0.00271065    -0.86450
O1979       O  0.99339322  0.63616954  0.99688528    -0.87790
Zr1980     Zr  0.60885279  0.54574341  0.00081312     2.83100
Zr1981     Zr  0.98179324  0.54521487  0.00014133     2.83500
Zr1982     Zr  0.54599252  0.54539047  0.43552148     2.84090
Zr1983     Zr  0.54528108  0.54600484  0.06544252     2.83360
Zr1984     Zr  0.54507339  0.61016812  0.99996948     2.84220
O1985       O  0.51330146  0.57788322  0.03249577    -1.08360
O1986       O  0.57750019  0.57802423  0.46785482    -1.07860
C1987       C  0.62604619  0.62632740  0.00541344     1.06800
C1988       C  0.96440388  0.62656393  0.99510289     1.09420
C1989       C  0.62643325  0.55191798  0.41945704     1.06970
C1990       C  0.62613806  0.54014052  0.08212435     1.07330
C1991       C  0.96441537  0.55199282  0.08144734     1.06910
C1992       C  0.96553949  0.54060883  0.41860704     1.06470
C1993       C  0.54545358  0.62565286  0.41712578     1.06890
C1994       C  0.54459102  0.62680911  0.08275066     1.06400
H1995       H  0.50026448  0.59027931  0.45351454     0.33080
O1996       O  0.51345315  0.57749754  0.46744687    -1.29460
H1997       H  0.59007507  0.59118656  0.04702407     0.33100
O1998       O  0.57701980  0.57824268  0.03318876    -1.30840
C1999       C  0.54485634  0.89509912  0.15893220    -0.05260
C2000       C  0.52823465  0.89036446  0.13014527    -0.32690
C2001       C  0.52900386  0.91299387  0.10558659     0.36560
C2002       C  0.54632951  0.94124720  0.10952396    -0.05620
C2003       C  0.56271826  0.94627172  0.13863149    -0.32590
C2004       C  0.56218807  0.92328658  0.16322429     0.36470
H2005       H  0.51465753  0.86879270  0.12662090     0.16840
O2006       O  0.01183604  0.90768792  0.07819242    -0.60090
H2007       H  0.57640075  0.96777332  0.14206571     0.16850
O2008       O  0.57980985  0.92784287  0.19055343    -0.60180
H2009       H  0.56615464  0.94070337  0.20503607     0.43850
H2010       H  0.02529847  0.89346141  0.06485399     0.43800
C2011       C  0.54635244  0.65208962  0.10767786    -0.05260
C2012       C  0.56235972  0.68027540  0.10025148    -0.32690
C2013       C  0.56650605  0.70410487  0.12332173     0.36560
C2014       C  0.55410812  0.70047494  0.15477720    -0.05620
C2015       C  0.53770096  0.67233789  0.16223137    -0.32590
C2016       C  0.53396568  0.64816952  0.13904909     0.36470
H2017       H  0.57277626  0.68352044  0.07661434     0.16840
O2018       O  0.58457303  0.73004767  0.11539375    -0.60090
H2019       H  0.52758806  0.66906359  0.18596621     0.16850
O2020       O  0.51737654  0.62128950  0.14701945    -0.60180
H2021       H  0.53269174  0.60752940  0.15863940     0.43850
H2022       H  0.57156139  0.74262022  0.10007490     0.43800
C2023       C  0.54213630  0.89120333  0.34498599    -0.05260
C2024       C  0.52605214  0.92033612  0.34094573    -0.32690
C2025       C  0.52825488  0.94470236  0.36382228     0.36560
C2026       C  0.54594562  0.94005265  0.39218711    -0.05620
C2027       C  0.56313240  0.91166877  0.39586339    -0.32590
C2028       C  0.56186559  0.88757282  0.37237351     0.36470
H2029       H  0.51059454  0.92398587  0.32046820     0.16840
O2030       O  0.51130830  0.97223015  0.35912344    -0.60090
H2031       H  0.57792470  0.90825988  0.41690870     0.16850
O2032       O  0.58117752  0.86143834  0.37571335    -0.60180
H2033       H  0.57428243  0.85074994  0.39583165     0.43850
H2034       H  0.52473466  0.98552969  0.34491918     0.43800
C2035       C  0.54554449  0.64960094  0.39136089    -0.05260
C2036       C  0.57380089  0.65608398  0.37500121    -0.32690
C2037       C  0.57455848  0.67870327  0.35024964     0.36560
C2038       C  0.54663062  0.69490597  0.34123487    -0.05620
C2039       C  0.51812046  0.68742428  0.35692254    -0.32590
C2040       C  0.51744172  0.66492010  0.38190244     0.36470
H2041       H  0.59545294  0.64392876  0.38182683     0.16840
O2042       O  0.60291953  0.68553521  0.33577136    -0.60090
H2043       H  0.99637218  0.69932157  0.35000676     0.16850
O2044       O  0.98920796  0.65707790  0.39621673    -0.60180
H2045       H  0.97966157  0.67741615  0.40356650     0.43850
H2046       H  0.61178755  0.70351403  0.34831192     0.43800
C2047       C  0.89114105  0.56419764  0.15281053    -0.05260
C2048       C  0.91903240  0.54713900  0.15998487    -0.32690
C2049       C  0.94314765  0.54346698  0.13730346     0.36560
C2050       C  0.93964467  0.55644350  0.10628913    -0.05620
C2051       C  0.91210706  0.57399679  0.09907229    -0.32590
C2052       C  0.88796998  0.57799240  0.12204057     0.36470
H2053       H  0.92185106  0.53548853  0.18308676     0.16840
O2054       O  0.96921729  0.52552365  0.14518553    -0.60090
H2055       H  0.90932633  0.58486432  0.07556964     0.16850
O2056       O  0.86206765  0.59634664  0.11459473    -0.60180
H2057       H  0.85065273  0.58454184  0.09749020     0.43850
H2058       H  0.98328842  0.54013412  0.15725863     0.43800
C2059       C  0.69801646  0.52643481  0.15526175    -0.05260
C2060       C  0.70383283  0.51772241  0.12313530    -0.32690
C2061       C  0.68128398  0.52311541  0.09909563     0.36560
C2062       C  0.65110900  0.53549312  0.10695548    -0.05620
C2063       C  0.64479954  0.54328940  0.13914540    -0.32590
C2064       C  0.66792277  0.53955997  0.16300118     0.36470
H2065       H  0.72629789  0.50739863  0.11614018     0.16840
O2066       O  0.68924550  0.51615885  0.06791769    -0.60090
H2067       H  0.62215649  0.55354411  0.14582526     0.16850
O2068       O  0.66151234  0.55133018  0.19315790    -0.60180
H2069       H  0.64608409  0.53632145  0.20275598     0.43850
H2070       H  0.70055546  0.53523857  0.05990803     0.43800
C2071       C  0.65186580  0.55564929  0.39522456    -0.05260
C2072       C  0.64525273  0.56960076  0.36520829    -0.32690
C2073       C  0.66884883  0.57229842  0.34153010     0.36560
C2074       C  0.69965439  0.56053533  0.34763739    -0.05620
C2075       C  0.70632168  0.54779693  0.37820617    -0.32590
C2076       C  0.68305479  0.54561924  0.40187602     0.36470
H2077       H  0.62171571  0.57857112  0.36005056     0.16840
O2078       O  0.66184689  0.58746441  0.31312095    -0.60090
H2079       H  0.72946842  0.53797870  0.38355002     0.16850
O2080       O  0.69077613  0.53178536  0.43077421    -0.60180
H2081       H  0.70065431  0.54898851  0.44365466     0.43850
H2082       H  0.64526359  0.57440253  0.30261615     0.43800
C2083       C  0.89438533  0.53479909  0.34539787    -0.05260
C2084       C  0.91837591  0.55783656  0.34368703    -0.32690
C2085       C  0.94177376  0.55963984  0.36724726     0.36560
C2086       C  0.94134892  0.53840819  0.39333966    -0.05620
C2087       C  0.91759797  0.51515918  0.39517511    -0.32590
C2088       C  0.89433229  0.51304585  0.37120999     0.36470
H2089       H  0.91838848  0.57533069  0.32450961     0.16840
O2090       O  0.96374188  0.58357885  0.36571286    -0.60090
H2091       H  0.91728383  0.99847036  0.41507064     0.16850
O2092       O  0.87181282  0.98971911  0.37324117    -0.60180
H2093       H  0.88003073  0.97196061  0.35984456     0.43850
H2094       H  0.98033784  0.57569157  0.35077595     0.43800
C2095       C  0.69913889  0.89281575  0.98610759    -0.05260
C2096       C  0.70510431  0.92160660  0.00223996    -0.32690
C2097       C  0.68210533  0.94532461  0.00453463     0.36560
C2098       C  0.65174656  0.94041823  0.99166174    -0.05620
C2099       C  0.64581007  0.91218195  0.47454712    -0.32590
C2100       C  0.66929955  0.88858758  0.47136716     0.36470
H2101       H  0.72745860  0.92552624  0.01434479     0.16840
O2102       O  0.68918295  0.97260005  0.02100240    -0.60090
H2103       H  0.62297400  0.90847962  0.46331498     0.16850
O2104       O  0.66329449  0.86227371  0.45276647    -0.60180
H2105       H  0.64569502  0.85095312  0.46362146     0.43850
H2106       H  0.70050958  0.98622951  0.00529702     0.43800
C2107       C  0.65070486  0.65114029  0.00930425    -0.05260
C2108       C  0.64471265  0.68197074  0.49795592    -0.32690
C2109       C  0.66748349  0.70588635  0.50043979     0.36560
C2110       C  0.69710847  0.69953905  0.01511290    -0.05620
C2111       C  0.70279871  0.66883157  0.02728320    -0.32590
C2112       C  0.68011158  0.64470598  0.02422537     0.36470
H2113       H  0.62254665  0.68745475  0.48603144     0.16840
O2114       O  0.66131809  0.73465492  0.48606546    -0.60090
H2115       H  0.72506493  0.66326629  0.03891188     0.16850
O2116       O  0.68675136  0.61514365  0.03657087    -0.60180
H2117       H  0.69958630  0.60429159  0.01979339     0.43850
H2118       H  0.64566258  0.74538464  0.50025092     0.43800
C2119       C  0.93922704  0.65104067  0.99101139    -0.05260
C2120       C  0.90862849  0.64487602  0.00238594    -0.32690
C2121       C  0.88425906  0.66732532  0.99906913     0.36560
C2122       C  0.88973863  0.69656656  0.98292283    -0.05620
C2123       C  0.92033447  0.70220265  0.47072009    -0.32590
C2124       C  0.94502321  0.68027038  0.47542003     0.36470
H2125       H  0.90372021  0.62288875  0.01505595     0.16840
O2126       O  0.85594997  0.66127122  0.01402791    -0.60090
H2127       H  0.92557332  0.72395637  0.45789876     0.16850
O2128       O  0.97465174  0.68756677  0.46420903    -0.60180
H2129       H  0.98422646  0.70113611  0.48113657     0.43850
H2130       H  0.84576588  0.64437716  0.00097654     0.43800
C2131       C  0.89164790  0.89240279  0.01195920    -0.05260
C2132       C  0.92308514  0.88522095  0.02056705    -0.32690
C2133       C  0.94739467  0.90750473  0.01669418     0.36560
C2134       C  0.94056512  0.93873593  0.00617870    -0.05620
C2135       C  0.90917001  0.94629515  0.49829781    -0.32590
C2136       C  0.88507607  0.92355751  0.50038195     0.36470
H2137       H  0.92938108  0.86198119  0.02974338     0.16840
O2138       O  0.97779899  0.89824067  0.02327143    -0.60090
H2139       H  0.90326405  0.96976689  0.48925530     0.16850
O2140       O  0.85580278  0.93157737  0.48855285    -0.60180
H2141       H  0.84673264  0.94681376  0.50436345     0.43850
H2142       H  0.98550750  0.88788871  0.00325008     0.43800
C2143       C  0.86707960  0.86660479  0.51087854     0.03330
C2144       C  0.87550113  0.83399357  0.00517440    -0.12820
C2145       C  0.85252738  0.81316012  0.99295371     0.00830
C2146       C  0.82410937  0.82707160  0.98284485    -0.11340
C2147       C  0.81212283  0.85362068  0.49891392     0.03330
C2148       C  0.83420658  0.87420766  0.51289981    -0.10760
H2149       H  0.89916007  0.82499543  0.00907009     0.08920
H2150       H  0.80889911  0.81387959  0.96748099     0.06450
H2151       H  0.82606725  0.89591939  0.52427763     0.06300
C2152       C  0.86520125  0.72252660  0.48278657     0.03330
C2153       C  0.87420427  0.75531226  0.48543832    -0.12820
C2154       C  0.85199799  0.77746935  0.49695232     0.00830
C2155       C  0.82398659  0.76498558  0.50916598    -0.11340
C2156       C  0.81083437  0.73746159  0.49622612     0.03330
C2157       C  0.83214882  0.71514454  0.48335117    -0.10760
H2158       H  0.89791492  0.76334366  0.48019097     0.08920
H2159       H  0.80956478  0.77976213  0.52371384     0.06450
H2160       H  0.82347345  0.69239215  0.47500602     0.06300
C2161       C  0.72296699  0.72364075  0.51395381     0.03330
C2162       C  0.75480740  0.71459339  0.50657928    -0.12820
C2163       C  0.77527282  0.73747199  0.49347337     0.00830
C2164       C  0.76152056  0.76654447  0.48473312    -0.11340
C2165       C  0.73611695  0.77875867  0.50230918     0.03390
C2166       C  0.71575538  0.75668670  0.51656546    -0.10760
H2167       H  0.76316081  0.69043669  0.50978438     0.08920
H2168       H  0.77413259  0.78203093  0.46915962     0.06450
H2169       H  0.69419883  0.76482280  0.52808370     0.06300
C2170       C  0.72326468  0.86698571  0.48884568     0.03330
C2171       C  0.75598854  0.87484056  0.49020035    -0.12820
C2172       C  0.77722253  0.85397133  0.50525022     0.00830
C2173       C  0.76443178  0.82693066  0.51991029    -0.11340
C2174       C  0.73614959  0.81388425  0.50840347     0.03330
C2175       C  0.71428760  0.83489203  0.49455477    -0.10760
H2176       H  0.76451143  0.89720109  0.48061579     0.08920
H2177       H  0.77865167  0.81346545  0.53626820     0.06450
H2178       H  0.69074381  0.82635143  0.48951275     0.06300
C2179       C  0.86854337  0.53658771  0.82145476     0.03330
C2180       C  0.83633041  0.53788589  0.83125297    -0.12820
C2181       C  0.81392831  0.55150808  0.81043607     0.00830
C2182       C  0.82542005  0.56612871  0.78252186    -0.11340
C2183       C  0.85357448  0.55537459  0.76830491     0.03330
C2184       C  0.87612666  0.54160221  0.78858113    -0.10760
H2185       H  0.82900642  0.52972128  0.85481355     0.08920
H2186       H  0.81026131  0.58170597  0.76924564     0.06450
H2187       H  0.89937042  0.53559967  0.77931018     0.06300
C2188       C  0.72422419  0.55700783  0.82213101     0.03330
C2189       C  0.75689938  0.55881765  0.83034337    -0.12820
C2190       C  0.77938223  0.54366637  0.81076938     0.00830
C2191       C  0.76801288  0.52589162  0.78476672    -0.11340
C2192       C  0.73895082  0.53380345  0.77053556     0.03330
C2193       C  0.71593480  0.54753935  0.79037943    -0.10760
H2194       H  0.76447363  0.57086356  0.85207328     0.08920
H2195       H  0.78396625  0.51056871  0.77211278     0.06450
H2196       H  0.69215176  0.54984302  0.78119663     0.06300
C2197       C  0.72445786  0.52625971  0.67923636     0.03330
C2198       C  0.71792990  0.52377598  0.71285363    -0.12820
C2199       C  0.73897934  0.53759630  0.73471316     0.00830
C2200       C  0.76428640  0.55426009  0.72176869    -0.11340
C2201       C  0.77747277  0.54507196  0.69241266     0.03330
C2202       C  0.75641419  0.53264027  0.66957465    -0.10760
H2203       H  0.69643470  0.51284460  0.72160562     0.08920
H2204       H  0.77743541  0.56939897  0.73709866     0.06450
H2205       H  0.76444791  0.52961673  0.64504450     0.06300
C2206       C  0.86519492  0.56398141  0.67709942     0.03330
C2207       C  0.87321411  0.56497255  0.71040699    -0.12820
C2208       C  0.85307917  0.55052262  0.73267212     0.00830
C2209       C  0.82732837  0.53401893  0.72038872    -0.11340
C2210       C  0.81309763  0.54379516  0.69167194     0.03330
C2211       C  0.83319121  0.55714771  0.66835587    -0.10760
H2212       H  0.89544835  0.57498966  0.71841949     0.08920
H2213       H  0.81458205  0.51867040  0.73601096     0.06450
H2214       H  0.82452885  0.56049913  0.64411427     0.06300
C2215       C  0.54778185  0.72184877  0.81816067     0.03330
C2216       C  0.53442723  0.75146992  0.82722217    -0.12820
C2217       C  0.53976459  0.77824434  0.80820820     0.00830
C2218       C  0.55986442  0.77540126  0.78164198    -0.11340
C2219       C  0.56811686  0.74564222  0.76826354     0.03330
C2220       C  0.56268611  0.71861420  0.78760324    -0.10760
H2221       H  0.52055642  0.75378209  0.84905941     0.08920
H2222       H  0.56535341  0.79728624  0.76949656     0.06450
H2223       H  0.57000957  0.69531476  0.77922489     0.06300
C2224       C  0.53535503  0.86465062  0.82184337     0.03330
C2225       C  0.53417910  0.83253522  0.83219917    -0.12820
C2226       C  0.52244892  0.80904359  0.81158169     0.00830
C2227       C  0.50638707  0.81916852  0.78388315    -0.11340
C2228       C  0.51676399  0.84718743  0.76855652     0.03330
C2229       C  0.52941219  0.87105635  0.78872449    -0.10760
H2230       H  0.54272899  0.82523432  0.85552988     0.08920
H2231       H  0.49399016  0.80122011  0.77015953     0.06450
H2232       H  0.53603355  0.89383730  0.77865211     0.06300
C2233       C  0.55925782  0.72592757  0.67935956     0.03330
C2234       C  0.56617282  0.71932961  0.71227047    -0.12820
C2235       C  0.57648413  0.74428087  0.73272071     0.00830
C2236       C  0.58513114  0.77284007  0.71732292    -0.11340
C2237       C  0.56805361  0.78205441  0.68993637     0.03330
C2238       C  0.55626014  0.75810635  0.67006503    -0.10760
H2239       H  0.56257447  0.69570212  0.72188248     0.08920
H2240       H  0.59675538  0.79141464  0.73090141     0.06450
H2241       H  0.54373427  0.76446125  0.64821745     0.06300
C2242       C  0.54469368  0.86917059  0.68291318     0.03330
C2243       C  0.53041091  0.87296959  0.71366388    -0.12820
C2244       C  0.52419226  0.84594675  0.73290446     0.00830
C2245       C  0.53102453  0.81601570  0.71927534    -0.11340
C2246       C  0.55089281  0.81274122  0.69269373     0.03330
C2247       C  0.55690473  0.83924894  0.67364159    -0.10760
H2248       H  0.52354767  0.89643448  0.72196730     0.08920
H2249       H  0.52518924  0.79425030  0.73152117     0.06450
H2250       H  0.57065069  0.83670185  0.65173397     0.06300
O2251       O  0.95622326  0.99308257  0.50311208    -0.86280
O2252       O  0.63516324  0.99415586  0.49662768    -0.86450
O2253       O  0.54602072  0.95500293  0.94754699    -0.88120
O2254       O  0.54727019  0.95614122  0.55416299    -0.86870
O2255       O  0.54578309  0.99506711  0.59306041    -0.86460
O2256       O  0.54691473  0.99392452  0.90872352    -0.87840
O2257       O  0.59759997  0.95483790  0.49712868    -0.86310
O2258       O  0.99469303  0.95446556  0.50212897    -0.85900
Zr2259     Zr  0.54599645  0.98095290  0.50058843     2.84310
O2260       O  0.57742195  0.51337236  0.53331357    -1.07880
O2261       O  0.51405216  0.51299232  0.96781724    -1.08600
C2262       C  0.96548946  0.96366334  0.50350065     1.06820
C2263       C  0.62651318  0.96469360  0.49551053     1.06770
C2264       C  0.54642784  0.96456802  0.91787735     1.09750
C2265       C  0.54665530  0.96573278  0.58386138     1.07530
H2266       H  0.59123015  0.50051226  0.95407361     0.33090
O2267       O  0.57786690  0.51326056  0.96790021    -1.28830
H2268       H  0.50042482  0.50032234  0.54699982     0.32760
O2269       O  0.51358850  0.51324351  0.53324032    -1.30510
O2270       O  0.63518877  0.59696700  0.50522348    -0.86280
O2271       O  0.95555080  0.59710126  0.49613936    -0.87770
O2272       O  0.59757415  0.54985985  0.90934593    -0.86350
O2273       O  0.59708245  0.54268451  0.59174810    -0.86400
O2274       O  0.99342376  0.54965462  0.59106643    -0.86120
O2275       O  0.99458608  0.54309022  0.90928421    -0.85920
O2276       O  0.54580965  0.63558571  0.94667181    -0.86290
O2277       O  0.54379382  0.63587449  0.55293215    -0.85760
O2278       O  0.54515326  0.59632178  0.90801809    -0.86820
O2279       O  0.54530161  0.59757625  0.59235348    -0.85980
O2280       O  0.63498136  0.55097106  0.94923201    -0.86380
O2281       O  0.95593689  0.54022355  0.94811217    -0.86100
O2282       O  0.95527780  0.55101161  0.55180058    -0.85750
O2283       O  0.63507572  0.54091562  0.55244803    -0.86160
O2284       O  0.59695638  0.63579476  0.50271157    -0.86450
O2285       O  0.99339145  0.63616606  0.49688642    -0.87790
Zr2286     Zr  0.60885573  0.54574216  0.50081438     2.83100
Zr2287     Zr  0.98179221  0.54521102  0.50014123     2.83500
Zr2288     Zr  0.54599009  0.54539088  0.93552028     2.84090
Zr2289     Zr  0.54528284  0.54600479  0.56544340     2.83360
Zr2290     Zr  0.54507566  0.61016760  0.49997033     2.84220
O2291       O  0.51330341  0.57788305  0.53249653    -1.08360
O2292       O  0.57749742  0.57802501  0.96785350    -1.07860
C2293       C  0.62604804  0.62632707  0.50541470     1.06800
C2294       C  0.96440222  0.62656028  0.49510357     1.09420
C2295       C  0.62643098  0.55192086  0.91945600     1.06970
C2296       C  0.62613959  0.54013907  0.58212571     1.07330
C2297       C  0.96441490  0.55199023  0.58144731     1.06910
C2298       C  0.96553975  0.54061139  0.91860739     1.06470
C2299       C  0.54545328  0.62565345  0.91712500     1.06890
C2300       C  0.54459167  0.62680900  0.58275170     1.06400
H2301       H  0.50026217  0.59027985  0.95351378     0.33080
O2302       O  0.51345082  0.57749797  0.96744603    -1.29460
H2303       H  0.59007721  0.59118592  0.54702500     0.33100
O2304       O  0.57702216  0.57824196  0.53318953    -1.30840
C2305       C  0.54486306  0.89509924  0.65893279    -0.05260
C2306       C  0.52824430  0.89036219  0.63014455    -0.32690
C2307       C  0.52901240  0.91299148  0.60558590     0.36560
C2308       C  0.54633365  0.94124735  0.60952461    -0.05620
C2309       C  0.56271994  0.94627405  0.63863322    -0.32590
C2310       C  0.56219103  0.92328889  0.66322606     0.36470
H2311       H  0.51467005  0.86878875  0.62661925     0.16840
O2312       O  0.01182929  0.90768800  0.57819431    -0.60090
H2313       H  0.57639938  0.96777748  0.64206840     0.16850
O2314       O  0.57981034  0.92784750  0.69055645    -0.60180
H2315       H  0.56615330  0.94070797  0.70503732     0.43850
H2316       H  0.02529021  0.89345911  0.56485691     0.43800
C2317       C  0.54635225  0.65208982  0.60767891    -0.05260
C2318       C  0.56235659  0.68027702  0.60025150    -0.32690
C2319       C  0.56650309  0.70410659  0.62332161     0.36560
C2320       C  0.55410823  0.70047547  0.65477828    -0.05620
C2321       C  0.53770346  0.67233721  0.66223337    -0.32590
C2322       C  0.53396802  0.64816874  0.63905111     0.36470
H2323       H  0.57277108  0.68352311  0.57661358     0.16840
O2324       O  0.58456773  0.73005060  0.61539215    -0.60090
H2325       H  0.52759274  0.66906187  0.68596901     0.16850
O2326       O  0.51738140  0.62128747  0.64702263    -0.60180
H2327       H  0.53269839  0.60752851  0.65864153     0.43850
H2328       H  0.57155419  0.74262213  0.60007410     0.43800
C2329       C  0.54213692  0.89120970  0.84498343    -0.05260
C2330       C  0.52603565  0.92033419  0.84095335    -0.32690
C2331       C  0.52823578  0.94469902  0.86383166     0.36560
C2332       C  0.54594302  0.94005590  0.89218675    -0.05620
C2333       C  0.56314563  0.91168037  0.89585272    -0.32590
C2334       C  0.56187969  0.88758580  0.87236137     0.36470
H2335       H  0.51056731  0.92397731  0.82048293     0.16840
O2336       O  0.51127131  0.97221784  0.85914541    -0.60090
H2337       H  0.57794926  0.90827733  0.91689072     0.16850
O2338       O  0.58120434  0.86145931  0.87568965    -0.60180
H2339       H  0.57432260  0.85076572  0.89580983     0.43850
H2340       H  0.52468260  0.98552675  0.84493542     0.43800
C2341       C  0.54554625  0.64960184  0.89136042    -0.05260
C2342       C  0.57380373  0.65608425  0.87500237    -0.32690
C2343       C  0.57456346  0.67870451  0.85025177     0.36560
C2344       C  0.54663675  0.69490880  0.84123639    -0.05620
C2345       C  0.51812557  0.68742807  0.85692261    -0.32590
C2346       C  0.51744468  0.66492288  0.88190148     0.36470
H2347       H  0.59545495  0.64392785  0.88182858     0.16840
O2348       O  0.60292543  0.68553583  0.83577505    -0.60090
H2349       H  0.99638239  0.69932271  0.85000460     0.16850
O2350       O  0.98921556  0.65708070  0.89621530    -0.60180
H2351       H  0.97967159  0.67741977  0.90356593     0.43850
H2352       H  0.61179366  0.70351376  0.84831676     0.43800
C2353       C  0.89114092  0.56419688  0.65281065    -0.05260
C2354       C  0.91903376  0.54714130  0.65998637    -0.32690
C2355       C  0.94314899  0.54346894  0.63730500     0.36560
C2356       C  0.93964447  0.55644185  0.60628926    -0.05620
C2357       C  0.91210560  0.57399266  0.59907122    -0.32590
C2358       C  0.88796858  0.57798872  0.62203946     0.36470
H2359       H  0.92185366  0.53549323  0.68308933     0.16840
O2360       O  0.96922023  0.52552869  0.64518873    -0.60090
H2361       H  0.90932374  0.58485779  0.57556758     0.16850
O2362       O  0.86206495  0.59634056  0.61459225    -0.60180
H2363       H  0.85065097  0.58453382  0.59748844     0.43850
H2364       H  0.98329038  0.54014176  0.65725979     0.43800
C2365       C  0.69801712  0.52643165  0.65526311    -0.05260
C2366       C  0.70383244  0.51771622  0.62313731    -0.32690
C2367       C  0.68128353  0.52310883  0.59909758     0.36560
C2368       C  0.65111009  0.53549072  0.60695688    -0.05620
C2369       C  0.64480167  0.54329011  0.63914619    -0.32590
C2370       C  0.66792468  0.53955996  0.66300200     0.36470
H2371       H  0.72629659  0.50738984  0.61614294     0.16840
O2372       O  0.68924299  0.51614682  0.56792027    -0.60090
H2373       H  0.62215967  0.55354760  0.64582545     0.16850
O2374       O  0.66151547  0.55133237  0.69315812    -0.60180
H2375       H  0.64608614  0.53632540  0.70275722     0.43850
H2376       H  0.70055575  0.53522365  0.55990765     0.43800
C2377       C  0.65186374  0.55565441  0.89522359    -0.05260
C2378       C  0.64524803  0.56959808  0.86520420    -0.32690
C2379       C  0.66884383  0.57229653  0.84152572     0.36560
C2380       C  0.69965208  0.56054154  0.84763554    -0.05620
C2381       C  0.70632200  0.54781223  0.87820767    -0.32590
C2382       C  0.68305545  0.54563450  0.90187792     0.36470
H2383       H  0.62170900  0.57856163  0.86004400     0.16840
O2384       O  0.66183857  0.58745571  0.81311369    -0.60090
H2385       H  0.72947085  0.53800072  0.88355438     0.16850
O2386       O  0.69078059  0.53181051  0.93077988    -0.60180
H2387       H  0.70065250  0.54902035  0.94365620     0.43850
H2388       H  0.64525738  0.57438880  0.80261183     0.43800
C2389       C  0.89438423  0.53480350  0.84539924    -0.05260
C2390       C  0.91837596  0.55783968  0.84368752    -0.32690
C2391       C  0.94177431  0.55964224  0.86724733     0.36560
C2392       C  0.94134885  0.53841116  0.89334020    -0.05620
C2393       C  0.91759671  0.51516341  0.89517651    -0.32590
C2394       C  0.89433051  0.51305078  0.87121180     0.36470
H2395       H  0.91838915  0.57533335  0.82450969     0.16840
O2396       O  0.96374359  0.58358011  0.86571203    -0.60090
H2397       H  0.91727768  0.99847314  0.91506950     0.16850
O2398       O  0.87181002  0.98971937  0.87323667    -0.60180
H2399       H  0.88002895  0.97196091  0.85984066     0.43850
H2400       H  0.98033895  0.57569165  0.85077507     0.43800
C2401       C  0.69913874  0.89281495  0.48610642    -0.05260
C2402       C  0.70510536  0.92160741  0.50223537    -0.32690
C2403       C  0.68210623  0.94532532  0.50453025     0.36560
C2404       C  0.65174601  0.94041721  0.49166134    -0.05620
C2405       C  0.64581175  0.91218453  0.97454447    -0.32590
C2406       C  0.66930112  0.88858999  0.97136498     0.36470
H2407       H  0.72746084  0.92552854  0.51433742     0.16840
O2408       O  0.68918548  0.97260261  0.52099417    -0.60090
H2409       H  0.62297670  0.90848358  0.96330973     0.16850
O2410       O  0.66329748  0.86227759  0.95276168    -0.60180
H2411       H  0.64569718  0.85095617  0.96361438     0.43850
H2412       H  0.70050986  0.98623068  0.50528585     0.43800
C2413       C  0.65070631  0.65114025  0.50930583    -0.05260
C2414       C  0.64471043  0.68197148  0.99795678    -0.32690
C2415       C  0.66748160  0.70588683  0.00044012     0.36560
C2416       C  0.69710915  0.69953950  0.51511536    -0.05620
C2417       C  0.70279860  0.66883282  0.52728803    -0.32590
C2418       C  0.68011171  0.64470699  0.52422999     0.36470
H2419       H  0.62254349  0.68745635  0.98603452     0.16840
O2420       O  0.66131505  0.73465616  0.98606789    -0.60090
H2421       H  0.72506403  0.66326842  0.53891875     0.16850
O2422       O  0.68675025  0.61514558  0.53657839    -0.60180
H2423       H  0.69958678  0.60429225  0.51980302     0.43850
H2424       H  0.64566009  0.74538482  0.00025482     0.43800
C2425       C  0.93922560  0.65103723  0.49101174    -0.05260
C2426       C  0.90862677  0.64487295  0.50238563    -0.32690
C2427       C  0.88425776  0.66732275  0.49906866     0.36560
C2428       C  0.88973797  0.69656405  0.48292253    -0.05620
C2429       C  0.92033478  0.70220566  0.97071977    -0.32590
C2430       C  0.94502392  0.68027370  0.97541921     0.36470
H2431       H  0.90371797  0.62288565  0.51505535     0.16840
O2432       O  0.85594846  0.66126899  0.51402716    -0.60090
H2433       H  0.92557294  0.72395954  0.95789837     0.16850
O2434       O  0.97465205  0.68757023  0.96420727    -0.60180
H2435       H  0.98422716  0.70113977  0.98113441     0.43850
H2436       H  0.84576439  0.64437488  0.50097584     0.43800
C2437       C  0.89165108  0.89240047  0.51195417    -0.05260
C2438       C  0.92308803  0.88521684  0.52056191    -0.32690
C2439       C  0.94739871  0.90749941  0.51668970     0.36560
C2440       C  0.94057070  0.93873129  0.50617550    -0.05620
C2441       C  0.90916411  0.94629792  0.99830076    -0.32590
C2442       C  0.88507134  0.92355911  0.00038578     0.36470
H2443       H  0.92938293  0.86197659  0.52973764     0.16840
O2444       O  0.97780265  0.89823344  0.52326617    -0.60090
H2445       H  0.90325703  0.96976903  0.98925731     0.16850
O2446       O  0.85579769  0.93157700  0.98855624    -0.60180
H2447       H  0.84672674  0.94681362  0.00436613     0.43850
H2448       H  0.98551052  0.88788236  0.50324411     0.43800
loop_ 
_geom_bond_atom_site_label_1 
_geom_bond_atom_site_label_2 
_geom_bond_distance 
_geom_bond_site_symmetry_2 
_ccdc_geom_bond_type 
C1            C6   1.426       .  A
C1          C308   1.434       .  A
C1          C295   1.504       .  S
C2            C3   1.404       .  A
C2          C307   1.434       .  A
C2            H7   1.080       .  S
C3            C4   1.398       .  A
C3          C318   1.509       .  S
C4          C311   1.393       .  A
C4            H8   1.063       .  S
C5            C6   1.401   1_556  A
C5          C310   1.393       .  A
C5           C30   1.498   1_556  S
C6            H9   1.082       .  S
C10          C11   1.434       .  A
C10          C15   1.432       .  A
C10         C286   1.502       .  S
C11          C12   1.403       .  A
C11          H16   1.080       .  S
C12          C13   1.392   1_556  A
C12         C309   1.509       .  S
C13          C14   1.392   1_554  A
C13          H17   1.057       .  S
C14          C15   1.403       .  A
C14          C21   1.507       .  S
C15          H18   1.082       .  S
C19          C20   1.430       .  A
C19          C24   1.424       .  A
C19         C274   1.493       .  S
C20          C21   1.405   1_554  A
C20          H25   1.082       .  S
C21          C22   1.399       .  A
C22          C23   1.394   1_556  A
C22          H26   1.062       .  S
C23          C24   1.399       .  A
C23          C32   1.497       .  S
C24          H27   1.083       .  S
C28          C29   1.424       .  A
C28          C33   1.422       .  A
C28         C259   1.491       .  S
C29          C30   1.400   1_556  A
C29          H34   1.083       .  S
C30          C31   1.399       .  A
C31          C32   1.401       .  A
C31          H35   1.068       .  S
C32          C33   1.399   1_554  A
C33          H36   1.079       .  S
C37          C38   1.421       .  A
C37          C42   1.418       .  A
C37         C247   1.479       .  S
C38          C39   1.403       .  A
C38          H43   1.082       .  S
C39          C40   1.399       .  A
C39          C48   1.498       .  S
C40          C41   1.401       .  A
C40          H44   1.068       .  S
C41          C42   1.396       .  A
C41          C66   1.493       .  S
C42          H45   1.083       .  S
C46          C47   1.425       .  A
C46          C51   1.421       .  A
C46         C238   1.489       .  S
C47          C48   1.400       .  A
C47          H52   1.083       .  S
C48          C49   1.398       .  A
C49          C50   1.402       .  A
C49          H53   1.068       .  S
C50          C51   1.397       .  A
C50          C57   1.496       .  S
C51          H54   1.079       .  S
C55          C56   1.426       .  A
C55          C60   1.435       .  A
C55         C223   1.497       .  S
C56          C57   1.398       .  A
C56          H61   1.082       .  S
C57          C58   1.388       .  A
C58          C59   1.393       .  A
C58          H62   1.059       .  S
C59          C60   1.402       .  A
C59          C68   1.506       .  S
C60          H63   1.080       .  S
C64          C65   1.424       .  A
C64          C69   1.430       .  A
C64         C211   1.489       .  S
C65          C66   1.396       .  A
C65          H70   1.083       .  S
C66          C67   1.389       .  A
C67          C68   1.397       .  A
C67          H71   1.063       .  S
C68          C69   1.405       .  A
C69          H72   1.080       .  S
C73          C74   1.415       .  A
C73          C78   1.422       .  A
C73         C202   1.484       .  S
C74          C75   1.394       .  A
C74          H79   1.083       .  S
C75          C76   1.396       .  A
C75          C84   1.490       .  S
C76          C77   1.410       .  A
C76          H80   1.075       .  S
C77          C78   1.410       .  A
C77          C93   1.518       .  S
C78          H81   1.083       .  S
C82          C83   1.417       .  A
C82          C87   1.423       .  A
C82         C187   1.500       .  S
C83          C84   1.398       .  A
C83          H88   1.078       .  S
C84          C85   1.401       .  A
C85          C86   1.410       .  A
C85          H89   1.082   1_455  S
C86          C87   1.412       .  A
C86         C102   1.513       .  S
C87          H90   1.082       .  S
C91          C92   1.424       .  A
C91          C96   1.411       .  A
C91         C178   1.494       .  S
C92          C93   1.418       .  A
C92          H97   1.081       .  S
C93          C94   1.409       .  A
C94          C95   1.401       .  A
C94          H98   1.082       .  S
C95          C96   1.394       .  A
C95         C104   1.481       .  S
C96          H99   1.083       .  S
C100        C101   1.420       .  A
C100        C105   1.410       .  A
C100        C163   1.476       .  S
C101        C102   1.414       .  A
C101        H106   1.083       .  S
C102        C103   1.407       .  A
C103        C104   1.392       .  A
C103        H107   1.076       .  S
C104        C105   1.390       .  A
C105        H108   1.084       .  S
O109        C120   1.295       .  A
O109       Zr757   2.449       .  S
O110        C121   1.293       .  A
O110       Zr756   2.438   1_556  S
O111        C122   1.296       .  A
O111       Zr423   2.456       .  S
O112        C123   1.297       .  A
O112       Zr117   2.457       .  S
O113        C123   1.290       .  A
O113       Zr759   2.428       .  S
O114        C122   1.291       .  A
O114       Zr758   2.431       .  S
O115        C121   1.293       .  A
O115       Zr117   2.441   1_556  S
O116        C120   1.293       .  A
O116      Zr1341   2.441       .  S
Zr117       O417   2.456   1_554  S
Zr117      O1340   2.441   1_455  S
Zr117       O730   2.340       .  S
Zr117      O1037   2.340   1_554  S
Zr117       O739   2.352       .  S
Zr117      O1043   2.347   1_554  S
O118       Zr144   2.334       .  S
O118       Zr147   2.342       .  S
O118       Zr729   2.340   1_545  S
O119       Zr146   2.342       .  S
O119      Zr1035   2.340   1_545  S
O119      Zr1675   2.339   1_455  S
C120        C298   1.492       .  S
C121        C262   1.481       .  S
C122        C190   1.482       .  S
C123        C166   1.482       .  S
H124        O125   0.965       .  S
O125       Zr146   2.331       .  S
O125      Zr1035   2.347   1_545  S
O125       Zr450   2.336       .  S
H126        O127   0.966       .  S
O127       Zr147   2.343       .  S
O127       Zr729   2.352   1_545  S
O127      Zr1369   2.343   1_455  S
O128        C151   1.291       .  A
O128       Zr144   2.433       .  S
O129        C152   1.295       .  A
O129       Zr145   2.448   1_556  S
O130        C153   1.293       .  A
O130       Zr146   2.443       .  S
O131        C154   1.295       .  A
O131       Zr147   2.450       .  S
O132        C155   1.293       .  A
O132      Zr1371   2.439       .  S
O133        C156   1.291       .  A
O133      Zr1370   2.433       .  S
O134        C157   1.295       .  A
O134       Zr454   2.458       .  S
O135        C158   1.296       .  A
O135       Zr148   2.449   1_554  S
O136        C157   1.289       .  A
O136       Zr146   2.426       .  S
O137        C158   1.292       .  A
O137       Zr147   2.437       .  S
O138        C153   1.289       .  A
O138       Zr450   2.419       .  S
O139        C156   1.290       .  A
O139       Zr451   2.430       .  S
O140        C155   1.291       .  A
O140       Zr145   2.430       .  S
O141        C154   1.289       .  A
O141       Zr144   2.422       .  S
O142        C151   1.295       .  A
O142       Zr148   2.448   1_554  S
O143        C152   1.293       .  A
O143      Zr1372   2.442       .  S
Zr144       O722   2.438   1_544  S
Zr144       O444   2.419   1_554  S
Zr144       O162   2.337       .  S
Zr144       O431   2.336   1_554  S
Zr144       O456   2.336   1_554  S
Zr145       O721   2.449   1_545  S
Zr145       O445   2.430   1_554  S
Zr145      O1649   2.339   1_554  S
Zr145      O1351   2.343       .  S
Zr145      O1373   2.339       .  S
Zr145      O1690   2.342   1_554  S
Zr146       O726   2.431   1_545  S
Zr146      O1357   2.433   1_455  S
Zr146       O150   2.338       .  S
Zr146       O160   2.334       .  S
Zr147       O725   2.428   1_545  S
Zr147      O1356   2.439   1_455  S
Zr147       O149   2.341       .  S
Zr147       O162   2.332       .  S
Zr148       O440   2.458       .  S
Zr148      O1367   2.442   1_455  S
Zr148       O149   2.341   1_556  S
Zr148       O162   2.348   1_556  S
Zr148       O456   2.336       .  S
Zr148       O466   2.346       .  S
O149      Zr1369   2.339   1_455  S
O150       Zr450   2.336       .  S
O150       Zr454   2.336       .  S
C151        C271   1.485       .  S
C152        C283   1.487       .  S
C153        C235   1.480       .  S
C154        C226   1.488       .  S
C155        C214   1.480       .  S
C156        C250   1.468       .  S
C157        C199   1.469       .  S
C158        C175   1.484       .  S
H159        O160   0.965       .  S
O160      Zr1675   2.342   1_455  S
O160       Zr454   2.346       .  S
H161        O162   0.965       .  S
C163        C164   1.401       .  A
C163        C168   1.406       .  A
C164        C165   1.395       .  A
C164        H169   1.084       .  S
C165        C166   1.406       .  A
C165       O1394   1.368       .  S
C166        C167   1.409       .  A
C167        C168   1.406       .  A
C167        H171   1.084       .  S
C168        O172   1.371       .  S
O170       C1389   1.368       .  S
O170        H174   0.992       .  S
O172        H173   0.991       .  S
C175        C176   1.400       .  A
C175        C180   1.413       .  A
C176        C177   1.396       .  A
C176        H181   1.084       .  S
C177        C178   1.415       .  A
C177        O182   1.373       .  S
C178        C179   1.407       .  A
C179        C180   1.408       .  A
C179        H183   1.083       .  S
C180        O184   1.372       .  S
O182        H186   0.992       .  S
O184        H185   0.992       .  S
C187        C188   1.408       .  A
C187        C192   1.418       .  A
C188        C189   1.399       .  A
C188        H193   1.083       .  S
C189        C190   1.408       .  A
C189        O194   1.372       .  S
C190        C191   1.402       .  A
C191        C192   1.406       .  A
C191        H195   1.084       .  S
C192        O196   1.373       .  S
O194        H198   0.992       .  S
O196        H197   0.993       .  S
C199        C200   1.401       .  A
C199        C204   1.405       .  A
C200        C201   1.400       .  A
C200        H205   1.084       .  S
C201        C202   1.411       .  A
C201        O206   1.372       .  S
C202        C203   1.406       .  A
C203        C204   1.404       .  A
C203       H1431   1.084   1_455  S
C204       O1432   1.374   1_455  S
O206        H210   0.992       .  S
H207       C1427   1.084       .  S
O208       C1428   1.374       .  S
O208        H209   0.991       .  S
C211        C212   1.409       .  A
C211        C216   1.409       .  A
C212        C213   1.395       .  A
C212        H217   1.083       .  S
C213        C214   1.406       .  A
C213        O218   1.372       .  S
C214        C215   1.408       .  A
C215        C216   1.405       .  A
C215        H219   1.084       .  S
C216        O220   1.372       .  S
O218        H222   0.992       .  S
O220        H221   0.992       .  S
C223        C224   1.404       .  A
C223        C228   1.421       .  A
C224        C225   1.398       .  A
C224        H229   1.082       .  S
C225        C226   1.413       .  A
C225        O230   1.368       .  S
C226        C227   1.401       .  A
C227        C228   1.400       .  A
C227        H231   1.084       .  S
C228        O232   1.372       .  S
O230        H234   0.992       .  S
O232        H233   0.992       .  S
C235        C236   1.405       .  A
C235        C240   1.410       .  A
C236        C237   1.404       .  A
C236        H241   1.084       .  S
C237        C238   1.414       .  A
C237        O242   1.373       .  S
C238        C239   1.406       .  A
C239        C240   1.393       .  A
C239        H243   1.083       .  S
C240        O244   1.372       .  S
O242        H246   0.993       .  S
O244        H245   0.992       .  S
C247        C248   1.406       .  A
C247        C252   1.409       .  A
C248        C249   1.393       .  A
C248        H253   1.084       .  S
C249        C250   1.404       .  A
C249        O254   1.373       .  S
C250        C251   1.405       .  A
C251        C252   1.402       .  A
C251        H867   1.084   1_545  S
C252        O868   1.371   1_545  S
O254        H258   0.992       .  S
H255        C863   1.084       .  S
O256        C864   1.371       .  S
O256        H257   0.992       .  S
C259        C260   1.406   1_556  A
C259        C570   1.413       .  A
C260        C261   1.392       .  A
C260        H265   1.083       .  S
C261        C262   1.406   1_554  A
C261        O266   1.368       .  S
C262        C569   1.406       .  A
C263        C264   1.406       .  A
C263        C568   1.406       .  A
C263        H267   1.084       .  S
C264        C565   1.413       .  A
C264        O268   1.372       .  S
O266        H270   0.992       .  S
O268        H269   0.992       .  S
C271        C276   1.414       .  A
C271        C578   1.401   1_554  A
C272        C273   1.397       .  A
C272        C577   1.401       .  A
C272        H277   1.084       .  S
C273        C580   1.417       .  A
C273        O278   1.372       .  S
C274        C275   1.406       .  A
C274        C579   1.417       .  A
C275        C276   1.403       .  A
C275        H279   1.083       .  S
C276        O280   1.372       .  S
O278        H282   0.992       .  S
O280        H281   0.992       .  S
C283        C284   1.401   1_556  A
C283        C594   1.411       .  A
C284        C285   1.401   1_554  A
C284        H289   1.084       .  S
C285        C286   1.420       .  A
C285        O290   1.372   1_556  S
C286        C593   1.409       .  A
C287        C288   1.403       .  A
C287        C592   1.409       .  A
C287        H291   1.081       .  S
C288        C589   1.411       .  A
C288        O292   1.371       .  S
O290        H294   0.992       .  S
O292        H293   0.992       .  S
C295        C296   1.407       .  A
C295        C606   1.421       .  A
C296        C297   1.402       .  A
C296        H301   1.081       .  S
C297        C298   1.412       .  A
C297        O302   1.369       .  S
C298        C605   1.402   1_554  A
C299        C300   1.401       .  A
C299        C604   1.402       .  A
C299        H303   1.084       .  S
C300        C601   1.421       .  A
C300        O304   1.372       .  S
O302        H306   0.992       .  S
O304        H305   0.992       .  S
C307        C312   1.426       .  A
C307        C601   1.504       .  S
C308        C309   1.404   1_554  A
C308        H313   1.080       .  S
C309        C310   1.398       .  A
C310        H314   1.063       .  S
C311        C312   1.401       .  A
C311        C336   1.498       .  S
C312        H315   1.082       .  S
C316        C317   1.434       .  A
C316        C321   1.432       .  A
C316        C592   1.502       .  S
C317        C318   1.403       .  A
C317        H322   1.080       .  S
C318        C319   1.392       .  A
C319        C320   1.392       .  A
C319        H323   1.057       .  S
C320        C321   1.403       .  A
C320        C327   1.507       .  S
C321        H324   1.082       .  S
C325        C326   1.430       .  A
C325        C330   1.424       .  A
C325        C580   1.493       .  S
C326        C327   1.405       .  A
C326        H331   1.082       .  S
C327        C328   1.399       .  A
C328        C329   1.394       .  A
C328        H332   1.062       .  S
C329        C330   1.399       .  A
C329        C338   1.497       .  S
C330        H333   1.083       .  S
C334        C335   1.424       .  A
C334        C339   1.422       .  A
C334        C565   1.491       .  S
C335        C336   1.400       .  A
C335        H340   1.083       .  S
C336        C337   1.399       .  A
C337        C338   1.401       .  A
C337        H341   1.068       .  S
C338        C339   1.399       .  A
C339        H342   1.079       .  S
C343        C344   1.421       .  A
C343        C348   1.418       .  A
C343        C553   1.479       .  S
C344        C345   1.403       .  A
C344        H349   1.082       .  S
C345        C346   1.399       .  A
C345        C354   1.498       .  S
C346        C347   1.401       .  A
C346        H350   1.068       .  S
C347        C348   1.396       .  A
C347        C372   1.493       .  S
C348        H351   1.083       .  S
C352        C353   1.425       .  A
C352        C357   1.421       .  A
C352        C544   1.489       .  S
C353        C354   1.400       .  A
C353        H358   1.083       .  S
C354        C355   1.398       .  A
C355        C356   1.402       .  A
C355        H359   1.068       .  S
C356        C357   1.397       .  A
C356        C363   1.496       .  S
C357        H360   1.079       .  S
C361        C362   1.426       .  A
C361        C366   1.435       .  A
C361        C529   1.497       .  S
C362        C363   1.398       .  A
C362        H367   1.082       .  S
C363        C364   1.388       .  A
C364        C365   1.393       .  A
C364        H368   1.059       .  S
C365        C366   1.402       .  A
C365        C374   1.506       .  S
C366        H369   1.080       .  S
C370        C371   1.424       .  A
C370        C375   1.430       .  A
C370        C517   1.489       .  S
C371        C372   1.396       .  A
C371        H376   1.083       .  S
C372        C373   1.389       .  A
C373        C374   1.397       .  A
C373        H377   1.063       .  S
C374        C375   1.405       .  A
C375        H378   1.080       .  S
C379        C380   1.415       .  A
C379        C384   1.422       .  A
C379        C508   1.484       .  S
C380        C381   1.394       .  A
C380        H385   1.083       .  S
C381        C382   1.396       .  A
C381        C390   1.490       .  S
C382        C383   1.410       .  A
C382        H386   1.075       .  S
C383        C384   1.410       .  A
C383        C399   1.518       .  S
C384        H387   1.083       .  S
C388        C389   1.417       .  A
C388        C393   1.423       .  A
C388        C493   1.500       .  S
C389        C390   1.398       .  A
C389        H394   1.078       .  S
C390        C391   1.401       .  A
C391        C392   1.410       .  A
C391        H395   1.082   1_455  S
C392        C393   1.412       .  A
C392        C408   1.513       .  S
C393        H396   1.082       .  S
C397        C398   1.424       .  A
C397        C402   1.411       .  A
C397        C484   1.494       .  S
C398        C399   1.418       .  A
C398        H403   1.081       .  S
C399        C400   1.409       .  A
C400        C401   1.401       .  A
C400        H404   1.082       .  S
C401        C402   1.394       .  A
C401        C410   1.481       .  S
C402        H405   1.083       .  S
C406        C407   1.420       .  A
C406        C411   1.410       .  A
C406        C469   1.476       .  S
C407        C408   1.414       .  A
C407        H412   1.083       .  S
C408        C409   1.407       .  A
C409        C410   1.392       .  A
C409        H413   1.076       .  S
C410        C411   1.390       .  A
C411        H414   1.084       .  S
O415        C426   1.295       .  A
O415      Zr1063   2.449       .  S
O416        C427   1.293       .  A
O416      Zr1062   2.438       .  S
O417        C428   1.296       .  A
O418        C429   1.297       .  A
O418       Zr423   2.457       .  S
O419        C429   1.290       .  A
O419      Zr1065   2.428       .  S
O420        C428   1.291       .  A
O420      Zr1064   2.431       .  S
O421        C427   1.293       .  A
O421       Zr423   2.441       .  S
O422        C426   1.293       .  A
O422      Zr1647   2.441       .  S
Zr423      O1646   2.441   1_455  S
Zr423      O1036   2.340       .  S
Zr423       O731   2.340       .  S
Zr423      O1045   2.352       .  S
Zr423       O737   2.347       .  S
O424      Zr1035   2.340   1_545  S
O424       Zr450   2.334       .  S
O424       Zr453   2.342       .  S
O425       Zr729   2.340   1_546  S
O425      Zr1369   2.339   1_456  S
O425       Zr452   2.342       .  S
C426        C604   1.492       .  S
C427        C568   1.481       .  S
C428        C496   1.482       .  S
C429        C472   1.482       .  S
H430        O431   0.965       .  S
O431       Zr729   2.347   1_546  S
O431       Zr452   2.331       .  S
H432        O433   0.966       .  S
O433      Zr1035   2.352   1_545  S
O433      Zr1675   2.343   1_455  S
O433       Zr453   2.343       .  S
O434        C457   1.291       .  A
O434       Zr450   2.433       .  S
O435        C458   1.295       .  A
O435       Zr451   2.448       .  S
O436        C459   1.293       .  A
O436       Zr452   2.443       .  S
O437        C460   1.295       .  A
O437       Zr453   2.450       .  S
O438        C461   1.293       .  A
O438      Zr1677   2.439       .  S
O439        C462   1.291       .  A
O439      Zr1676   2.433       .  S
O440        C463   1.295       .  A
O441        C464   1.296       .  A
O441       Zr454   2.449       .  S
O442        C463   1.289       .  A
O442       Zr452   2.426       .  S
O443        C464   1.292       .  A
O443       Zr453   2.437       .  S
O444        C459   1.289       .  A
O445        C462   1.290       .  A
O446        C461   1.291       .  A
O446       Zr451   2.430       .  S
O447        C460   1.289       .  A
O447       Zr450   2.422       .  S
O448        C457   1.295       .  A
O448       Zr454   2.448       .  S
O449        C458   1.293       .  A
O449      Zr1678   2.442       .  S
Zr450      O1028   2.438   1_545  S
Zr450       O468   2.337       .  S
Zr451      O1027   2.449   1_545  S
Zr451      O1343   2.339       .  S
Zr451      O1657   2.343       .  S
Zr451      O1679   2.339       .  S
Zr451      O1384   2.342       .  S
Zr452      O1032   2.431   1_545  S
Zr452      O1663   2.433   1_455  S
Zr452       O456   2.338       .  S
Zr452       O466   2.334       .  S
Zr453      O1031   2.428   1_545  S
Zr453      O1662   2.439   1_455  S
Zr453       O455   2.341       .  S
Zr453       O468   2.332       .  S
Zr454      O1673   2.442   1_455  S
Zr454       O455   2.341       .  S
Zr454       O468   2.348       .  S
O455      Zr1675   2.339   1_455  S
C457        C577   1.485       .  S
C458        C589   1.487       .  S
C459        C541   1.480       .  S
C460        C532   1.488       .  S
C461        C520   1.480       .  S
C462        C556   1.468       .  S
C463        C505   1.469       .  S
C464        C481   1.484       .  S
H465        O466   0.965       .  S
O466      Zr1369   2.342   1_456  S
H467        O468   0.965       .  S
C469        C470   1.401       .  A
C469        C474   1.406       .  A
C470        C471   1.395       .  A
C470        H475   1.084       .  S
C471        C472   1.406       .  A
C471       O1700   1.368       .  S
C472        C473   1.409       .  A
C473        C474   1.406       .  A
C473        H477   1.084       .  S
C474        O478   1.371       .  S
O476       C1695   1.368       .  S
O476        H480   0.992       .  S
O478        H479   0.991       .  S
C481        C482   1.400       .  A
C481        C486   1.413       .  A
C482        C483   1.396       .  A
C482        H487   1.084       .  S
C483        C484   1.415       .  A
C483        O488   1.373       .  S
C484        C485   1.407       .  A
C485        C486   1.408       .  A
C485        H489   1.083       .  S
C486        O490   1.372       .  S
O488        H492   0.992       .  S
O490        H491   0.992       .  S
C493        C494   1.408       .  A
C493        C498   1.418       .  A
C494        C495   1.399       .  A
C494        H499   1.083       .  S
C495        C496   1.408       .  A
C495        O500   1.372       .  S
C496        C497   1.402       .  A
C497        C498   1.406       .  A
C497        H501   1.084       .  S
C498        O502   1.373       .  S
O500        H504   0.992       .  S
O502        H503   0.993       .  S
C505        C506   1.401       .  A
C505        C510   1.405       .  A
C506        C507   1.400       .  A
C506        H511   1.084       .  S
C507        C508   1.411       .  A
C507        O512   1.372       .  S
C508        C509   1.406       .  A
C509        C510   1.404       .  A
C509       H1737   1.084   1_455  S
C510       O1738   1.374   1_455  S
O512        H516   0.992       .  S
H513       C1733   1.084       .  S
O514       C1734   1.374       .  S
O514        H515   0.991       .  S
C517        C518   1.409       .  A
C517        C522   1.409       .  A
C518        C519   1.395       .  A
C518        H523   1.083       .  S
C519        C520   1.406       .  A
C519        O524   1.372       .  S
C520        C521   1.408       .  A
C521        C522   1.405       .  A
C521        H525   1.084       .  S
C522        O526   1.372       .  S
O524        H528   0.992       .  S
O526        H527   0.992       .  S
C529        C530   1.404       .  A
C529        C534   1.421       .  A
C530        C531   1.398       .  A
C530        H535   1.082       .  S
C531        C532   1.413       .  A
C531        O536   1.368       .  S
C532        C533   1.401       .  A
C533        C534   1.400       .  A
C533        H537   1.084       .  S
C534        O538   1.372       .  S
O536        H540   0.992       .  S
O538        H539   0.992       .  S
C541        C542   1.405       .  A
C541        C546   1.410       .  A
C542        C543   1.404       .  A
C542        H547   1.084       .  S
C543        C544   1.414       .  A
C543        O548   1.373       .  S
C544        C545   1.406       .  A
C545        C546   1.393       .  A
C545        H549   1.083       .  S
C546        O550   1.372       .  S
O548        H552   0.993       .  S
O550        H551   0.992       .  S
C553        C554   1.406       .  A
C553        C558   1.409       .  A
C554        C555   1.393       .  A
C554        H559   1.084       .  S
C555        C556   1.404       .  A
C555        O560   1.373       .  S
C556        C557   1.405       .  A
C557        C558   1.402       .  A
C557       H1173   1.084   1_545  S
C558       O1174   1.371   1_545  S
O560        H564   0.992       .  S
H561       C1169   1.084       .  S
O562       C1170   1.371       .  S
O562        H563   0.992       .  S
C565        C566   1.406       .  A
C566        C567   1.392       .  A
C566        H571   1.083       .  S
C567        C568   1.406       .  A
C567        O572   1.368       .  S
C569        C570   1.406       .  A
C569        H573   1.084       .  S
C570        O574   1.372       .  S
O572        H576   0.992       .  S
O574        H575   0.992       .  S
C577        C582   1.414       .  A
C578        C579   1.397   1_556  A
C578        H583   1.084       .  S
C579        O584   1.372   1_554  S
C580        C581   1.406       .  A
C581        C582   1.403       .  A
C581        H585   1.083       .  S
C582        O586   1.372       .  S
O584        H588   0.992   1_556  S
O586        H587   0.992       .  S
C589        C590   1.401       .  A
C590        C591   1.401       .  A
C590        H595   1.084       .  S
C591        C592   1.420       .  A
C591        O596   1.372       .  S
C593        C594   1.403       .  A
C593        H597   1.081       .  S
C594        O598   1.371       .  S
O596        H600   0.992       .  S
O598        H599   0.992       .  S
C601        C602   1.407       .  A
C602        C603   1.402       .  A
C602        H607   1.081       .  S
C603        C604   1.412       .  A
C603        O608   1.369       .  S
C605        C606   1.401   1_556  A
C605        H609   1.084       .  S
C606        O610   1.372   1_554  S
O608        H612   0.992       .  S
O610        H611   0.992   1_556  S
C613        C920   1.434       .  A
C613        C618   1.426       .  A
C613        C907   1.504       .  S
C614        C919   1.434       .  A
C614        C615   1.404       .  A
C614        H619   1.080       .  S
C615        C616   1.398       .  A
C615        C930   1.509       .  S
C616        C923   1.393       .  A
C616        H620   1.063       .  S
C617        C922   1.393       .  A
C617        C618   1.401   1_556  A
C617        C642   1.498   1_556  S
C618        H621   1.082       .  S
C622        C623   1.434       .  A
C622        C627   1.432       .  A
C622        C898   1.502       .  S
C623        C624   1.403       .  A
C623        H628   1.080       .  S
C624        C625   1.392   1_556  A
C624        C921   1.509       .  S
C625        C626   1.392   1_554  A
C625        H629   1.057       .  S
C626        C627   1.403       .  A
C626        C633   1.507       .  S
C627        H630   1.082       .  S
C631        C632   1.430       .  A
C631        C636   1.424       .  A
C631        C886   1.493       .  S
C632        C633   1.405   1_554  A
C632        H637   1.082       .  S
C633        C634   1.399       .  A
C634        C635   1.394   1_556  A
C634        H638   1.062       .  S
C635        C636   1.399       .  A
C635        C644   1.497       .  S
C636        H639   1.083       .  S
C640        C641   1.424       .  A
C640        C645   1.422       .  A
C640        C871   1.491       .  S
C641        C642   1.400   1_556  A
C641        H646   1.083       .  S
C642        C643   1.399       .  A
C643        C644   1.401       .  A
C643        H647   1.068       .  S
C644        C645   1.399   1_554  A
C645        H648   1.079       .  S
C649        C650   1.421       .  A
C649        C654   1.418       .  A
C649        C859   1.479       .  S
C650        C651   1.403       .  A
C650        H655   1.082       .  S
C651        C652   1.399       .  A
C651        C660   1.498       .  S
C652        C653   1.401       .  A
C652        H656   1.068       .  S
C653        C654   1.396       .  A
C653        C678   1.493       .  S
C654        H657   1.083       .  S
C658        C659   1.425       .  A
C658        C663   1.421       .  A
C658        C850   1.489       .  S
C659        C660   1.400       .  A
C659        H664   1.083       .  S
C660        C661   1.398       .  A
C661        C662   1.402       .  A
C661        H665   1.068       .  S
C662        C663   1.397       .  A
C662        C669   1.496       .  S
C663        H666   1.079       .  S
C667        C668   1.426       .  A
C667        C672   1.435       .  A
C667        C835   1.497       .  S
C668        C669   1.398       .  A
C668        H673   1.082       .  S
C669        C670   1.388       .  A
C670        C671   1.393       .  A
C670        H674   1.059       .  S
C671        C672   1.402       .  A
C671        C680   1.506       .  S
C672        H675   1.080       .  S
C676        C677   1.424       .  A
C676        C681   1.430       .  A
C676        C823   1.489       .  S
C677        C678   1.396       .  A
C677        H682   1.083       .  S
C678        C679   1.389       .  A
C679        C680   1.397       .  A
C679        H683   1.063       .  S
C680        C681   1.405       .  A
C681        H684   1.080       .  S
C685        C686   1.415       .  A
C685        C690   1.422       .  A
C685        C814   1.484       .  S
C686        C687   1.394       .  A
C686        H691   1.083       .  S
C687        C688   1.396       .  A
C687        C696   1.490       .  S
C688        C689   1.410       .  A
C688        H692   1.075       .  S
C689        C690   1.410       .  A
C689        C705   1.518       .  S
C690        H693   1.083       .  S
C694        C695   1.417       .  A
C694        C699   1.423       .  A
C694        C799   1.500       .  S
C695        C696   1.398       .  A
C695        H700   1.078       .  S
C696        C697   1.401       .  A
C697        C698   1.410       .  A
C697        H701   1.082   1_455  S
C698        C699   1.412       .  A
C698        C714   1.513       .  S
C699        H702   1.082       .  S
C703        C704   1.424       .  A
C703        C708   1.411       .  A
C703        C790   1.494       .  S
C704        C705   1.418       .  A
C704        H709   1.081       .  S
C705        C706   1.409       .  A
C706        C707   1.401       .  A
C706        H710   1.082       .  S
C707        C708   1.394       .  A
C707        C716   1.481       .  S
C708        H711   1.083       .  S
C712        C713   1.420       .  A
C712        C717   1.410       .  A
C712        C775   1.476       .  S
C713        C714   1.414       .  A
C713        H718   1.083       .  S
C714        C715   1.407       .  A
C715        C716   1.392       .  A
C715        H719   1.076       .  S
C716        C717   1.390       .  A
C717        H720   1.084       .  S
O721        C732   1.295       .  A
O722        C733   1.293       .  A
O723        C734   1.296       .  A
O723      Zr1035   2.456       .  S
O724        C735   1.297       .  A
O724       Zr729   2.457       .  S
O725        C735   1.290       .  A
O726        C734   1.291       .  A
O727        C733   1.293       .  A
O727       Zr729   2.441   1_556  S
O728        C732   1.293       .  A
O728      Zr1953   2.441       .  S
Zr729      O1029   2.456   1_554  S
Zr729      O1952   2.441   1_455  S
O730       Zr756   2.334       .  S
O730       Zr759   2.342       .  S
O731      Zr2287   2.339   1_455  S
O731       Zr758   2.342       .  S
C732        C910   1.492       .  S
C733        C874   1.481       .  S
C734        C802   1.482       .  S
C735        C778   1.482       .  S
H736        O737   0.965       .  S
O737      Zr1062   2.336       .  S
O737       Zr758   2.331       .  S
H738        O739   0.966       .  S
O739      Zr1981   2.343   1_455  S
O739       Zr759   2.343       .  S
O740        C763   1.291       .  A
O740       Zr756   2.433       .  S
O741        C764   1.295       .  A
O741       Zr757   2.448   1_556  S
O742        C765   1.293       .  A
O742       Zr758   2.443       .  S
O743        C766   1.295       .  A
O743       Zr759   2.450       .  S
O744        C767   1.293       .  A
O744      Zr1983   2.439       .  S
O745        C768   1.291       .  A
O745      Zr1982   2.433       .  S
O746        C769   1.295       .  A
O746      Zr1066   2.458       .  S
O747        C770   1.296       .  A
O747       Zr760   2.449   1_554  S
O748        C769   1.289       .  A
O748       Zr758   2.426       .  S
O749        C770   1.292       .  A
O749       Zr759   2.437       .  S
O750        C765   1.289       .  A
O750      Zr1062   2.419       .  S
O751        C768   1.290       .  A
O751      Zr1063   2.430       .  S
O752        C767   1.291       .  A
O752       Zr757   2.430       .  S
O753        C766   1.289       .  A
O753       Zr756   2.422       .  S
O754        C763   1.295       .  A
O754       Zr760   2.448   1_554  S
O755        C764   1.293       .  A
O755      Zr1984   2.442       .  S
Zr756      O1056   2.419   1_554  S
Zr756      O1043   2.336   1_554  S
Zr756      O1068   2.336   1_554  S
Zr756       O774   2.337       .  S
Zr757      O1057   2.430   1_554  S
Zr757      O2261   2.339   1_554  S
Zr757      O1963   2.343       .  S
Zr757      O1985   2.339       .  S
Zr757      O2302   2.342   1_554  S
Zr758      O1969   2.433   1_455  S
Zr758       O762   2.338       .  S
Zr758       O772   2.334       .  S
Zr759      O1968   2.439   1_455  S
Zr759       O761   2.341       .  S
Zr759       O774   2.332       .  S
Zr760      O1052   2.458       .  S
Zr760      O1979   2.442   1_455  S
Zr760       O761   2.341   1_556  S
Zr760      O1068   2.336       .  S
Zr760       O774   2.348   1_556  S
Zr760      O1078   2.346       .  S
O761      Zr1981   2.339   1_455  S
O762      Zr1062   2.336       .  S
O762      Zr1066   2.336       .  S
C763        C883   1.485       .  S
C764        C895   1.487       .  S
C765        C847   1.480       .  S
C766        C838   1.488       .  S
C767        C826   1.480       .  S
C768        C862   1.468       .  S
C769        C811   1.469       .  S
C770        C787   1.484       .  S
H771        O772   0.965       .  S
O772      Zr2287   2.342   1_455  S
O772      Zr1066   2.346       .  S
H773        O774   0.965       .  S
C775        C776   1.401       .  A
C775        C780   1.406       .  A
C776        C777   1.395       .  A
C776        H781   1.084       .  S
C777        C778   1.406       .  A
C777       O2006   1.368       .  S
C778        C779   1.409       .  A
C779        C780   1.406       .  A
C779        H783   1.084       .  S
C780        O784   1.371       .  S
O782       C2001   1.368       .  S
O782        H786   0.992       .  S
O784        H785   0.991       .  S
C787        C788   1.400       .  A
C787        C792   1.413       .  A
C788        C789   1.396       .  A
C788        H793   1.084       .  S
C789        C790   1.415       .  A
C789        O794   1.373       .  S
C790        C791   1.407       .  A
C791        C792   1.408       .  A
C791        H795   1.083       .  S
C792        O796   1.372       .  S
O794        H798   0.992       .  S
O796        H797   0.992       .  S
C799        C800   1.408       .  A
C799        C804   1.418       .  A
C800        C801   1.399       .  A
C800        H805   1.083       .  S
C801        C802   1.408       .  A
C801        O806   1.372       .  S
C802        C803   1.402       .  A
C803        C804   1.406       .  A
C803        H807   1.084       .  S
C804        O808   1.373       .  S
O806        H810   0.992       .  S
O808        H809   0.993       .  S
C811        C812   1.401       .  A
C811        C816   1.405       .  A
C812        C813   1.400       .  A
C812        H817   1.084       .  S
C813        C814   1.411       .  A
C813        O818   1.372       .  S
C814        C815   1.406       .  A
C815        C816   1.404       .  A
C815       H2043   1.084   1_455  S
C816       O2044   1.374   1_455  S
O818        H822   0.992       .  S
H819       C2039   1.084       .  S
O820       C2040   1.374       .  S
O820        H821   0.991       .  S
C823        C824   1.409       .  A
C823        C828   1.409       .  A
C824        C825   1.395       .  A
C824        H829   1.083       .  S
C825        C826   1.406       .  A
C825        O830   1.372       .  S
C826        C827   1.408       .  A
C827        C828   1.405       .  A
C827        H831   1.084       .  S
C828        O832   1.372       .  S
O830        H834   0.992       .  S
O832        H833   0.992       .  S
C835        C836   1.404       .  A
C835        C840   1.421       .  A
C836        C837   1.398       .  A
C836        H841   1.082       .  S
C837        C838   1.413       .  A
C837        O842   1.368       .  S
C838        C839   1.401       .  A
C839        C840   1.400       .  A
C839        H843   1.084       .  S
C840        O844   1.372       .  S
O842        H846   0.992       .  S
O844        H845   0.992       .  S
C847        C848   1.405       .  A
C847        C852   1.410       .  A
C848        C849   1.404       .  A
C848        H853   1.084       .  S
C849        C850   1.414       .  A
C849        O854   1.373       .  S
C850        C851   1.406       .  A
C851        C852   1.393       .  A
C851        H855   1.083       .  S
C852        O856   1.372       .  S
O854        H858   0.993       .  S
O856        H857   0.992       .  S
C859        C860   1.406       .  A
C859        C864   1.409       .  A
C860        C861   1.393       .  A
C860        H865   1.084       .  S
C861        C862   1.404       .  A
C861        O866   1.373       .  S
C862        C863   1.405       .  A
C863        C864   1.402       .  A
O866        H870   0.992       .  S
O868        H869   0.992       .  S
C871        C872   1.406   1_556  A
C871       C1182   1.413       .  A
C872        C873   1.392       .  A
C872        H877   1.083       .  S
C873        C874   1.406   1_554  A
C873        O878   1.368       .  S
C874       C1181   1.406       .  A
C875       C1180   1.406       .  A
C875        C876   1.406       .  A
C875        H879   1.084       .  S
C876       C1177   1.413       .  A
C876        O880   1.372       .  S
O878        H882   0.992       .  S
O880        H881   0.992       .  S
C883       C1190   1.401   1_554  A
C883        C888   1.414       .  A
C884       C1189   1.401       .  A
C884        C885   1.397       .  A
C884        H889   1.084       .  S
C885       C1192   1.417       .  A
C885        O890   1.372       .  S
C886       C1191   1.417       .  A
C886        C887   1.406       .  A
C887        C888   1.403       .  A
C887        H891   1.083       .  S
C888        O892   1.372       .  S
O890        H894   0.992       .  S
O892        H893   0.992       .  S
C895        C896   1.401   1_556  A
C895       C1206   1.411       .  A
C896        C897   1.401   1_554  A
C896        H901   1.084       .  S
C897        C898   1.420       .  A
C897        O902   1.372   1_556  S
C898       C1205   1.409       .  A
C899       C1204   1.409       .  A
C899        C900   1.403       .  A
C899        H903   1.081       .  S
C900       C1201   1.411       .  A
C900        O904   1.371       .  S
O902        H906   0.992       .  S
O904        H905   0.992       .  S
C907        C908   1.407       .  A
C907       C1218   1.421       .  A
C908        C909   1.402       .  A
C908        H913   1.081       .  S
C909        C910   1.412       .  A
C909        O914   1.369       .  S
C910       C1217   1.402   1_554  A
C911       C1216   1.402       .  A
C911        C912   1.401       .  A
C911        H915   1.084       .  S
C912       C1213   1.421       .  A
C912        O916   1.372       .  S
O914        H918   0.992       .  S
O916        H917   0.992       .  S
C919        C924   1.426       .  A
C919       C1213   1.504       .  S
C920        C921   1.404   1_554  A
C920        H925   1.080       .  S
C921        C922   1.398       .  A
C922        H926   1.063       .  S
C923        C924   1.401       .  A
C923        C948   1.498       .  S
C924        H927   1.082       .  S
C928        C929   1.434       .  A
C928        C933   1.432       .  A
C928       C1204   1.502       .  S
C929        C930   1.403       .  A
C929        H934   1.080       .  S
C930        C931   1.392       .  A
C931        C932   1.392       .  A
C931        H935   1.057       .  S
C932        C933   1.403       .  A
C932        C939   1.507       .  S
C933        H936   1.082       .  S
C937        C938   1.430       .  A
C937        C942   1.424       .  A
C937       C1192   1.493       .  S
C938        C939   1.405       .  A
C938        H943   1.082       .  S
C939        C940   1.399       .  A
C940        C941   1.394       .  A
C940        H944   1.062       .  S
C941        C942   1.399       .  A
C941        C950   1.497       .  S
C942        H945   1.083       .  S
C946        C947   1.424       .  A
C946        C951   1.422       .  A
C946       C1177   1.491       .  S
C947        C948   1.400       .  A
C947        H952   1.083       .  S
C948        C949   1.399       .  A
C949        C950   1.401       .  A
C949        H953   1.068       .  S
C950        C951   1.399       .  A
C951        H954   1.079       .  S
C955        C956   1.421       .  A
C955        C960   1.418       .  A
C955       C1165   1.479       .  S
C956        C957   1.403       .  A
C956        H961   1.082       .  S
C957        C958   1.399       .  A
C957        C966   1.498       .  S
C958        C959   1.401       .  A
C958        H962   1.068       .  S
C959        C960   1.396       .  A
C959        C984   1.493       .  S
C960        H963   1.083       .  S
C964        C965   1.425       .  A
C964        C969   1.421       .  A
C964       C1156   1.489       .  S
C965        C966   1.400       .  A
C965        H970   1.083       .  S
C966        C967   1.398       .  A
C967        C968   1.402       .  A
C967        H971   1.068       .  S
C968        C969   1.397       .  A
C968        C975   1.496       .  S
C969        H972   1.079       .  S
C973        C974   1.426       .  A
C973        C978   1.435       .  A
C973       C1141   1.497       .  S
C974        C975   1.398       .  A
C974        H979   1.082       .  S
C975        C976   1.388       .  A
C976        C977   1.393       .  A
C976        H980   1.059       .  S
C977        C978   1.402       .  A
C977        C986   1.506       .  S
C978        H981   1.080       .  S
C982        C983   1.424       .  A
C982        C987   1.430       .  A
C982       C1129   1.489       .  S
C983        C984   1.396       .  A
C983        H988   1.083       .  S
C984        C985   1.389       .  A
C985        C986   1.397       .  A
C985        H989   1.063       .  S
C986        C987   1.405       .  A
C987        H990   1.080       .  S
C991        C992   1.415       .  A
C991        C996   1.422       .  A
C991       C1120   1.484       .  S
C992        C993   1.394       .  A
C992        H997   1.083       .  S
C993        C994   1.396       .  A
C993       C1002   1.490       .  S
C994        C995   1.410       .  A
C994        H998   1.075       .  S
C995        C996   1.410       .  A
C995       C1011   1.518       .  S
C996        H999   1.083       .  S
C1000      C1001   1.417       .  A
C1000      C1005   1.423       .  A
C1000      C1105   1.500       .  S
C1001      C1002   1.398       .  A
C1001      H1006   1.078       .  S
C1002      C1003   1.401       .  A
C1003      C1004   1.410       .  A
C1003      H1007   1.082   1_455  S
C1004      C1005   1.412       .  A
C1004      C1020   1.513       .  S
C1005      H1008   1.082       .  S
C1009      C1010   1.424       .  A
C1009      C1014   1.411       .  A
C1009      C1096   1.494       .  S
C1010      C1011   1.418       .  A
C1010      H1015   1.081       .  S
C1011      C1012   1.409       .  A
C1012      C1013   1.401       .  A
C1012      H1016   1.082       .  S
C1013      C1014   1.394       .  A
C1013      C1022   1.481       .  S
C1014      H1017   1.083       .  S
C1018      C1019   1.420       .  A
C1018      C1023   1.410       .  A
C1018      C1081   1.476       .  S
C1019      C1020   1.414       .  A
C1019      H1024   1.083       .  S
C1020      C1021   1.407       .  A
C1021      C1022   1.392       .  A
C1021      H1025   1.076       .  S
C1022      C1023   1.390       .  A
C1023      H1026   1.084       .  S
O1027      C1038   1.295       .  A
O1028      C1039   1.293       .  A
O1029      C1040   1.296       .  A
O1030      C1041   1.297       .  A
O1030     Zr1035   2.457       .  S
O1031      C1041   1.290       .  A
O1032      C1040   1.291       .  A
O1033      C1039   1.293       .  A
O1033     Zr1035   2.441       .  S
O1034      C1038   1.293       .  A
O1034     Zr2259   2.441       .  S
Zr1035     O2258   2.441   1_455  S
O1036     Zr1062   2.334       .  S
O1036     Zr1065   2.342       .  S
O1037     Zr1981   2.339   1_456  S
O1037     Zr1064   2.342       .  S
C1038      C1216   1.492       .  S
C1039      C1180   1.481       .  S
C1040      C1108   1.482       .  S
C1041      C1084   1.482       .  S
H1042      O1043   0.965       .  S
O1043     Zr1064   2.331       .  S
H1044      O1045   0.966       .  S
O1045     Zr2287   2.343   1_455  S
O1045     Zr1065   2.343       .  S
O1046      C1069   1.291       .  A
O1046     Zr1062   2.433       .  S
O1047      C1070   1.295       .  A
O1047     Zr1063   2.448       .  S
O1048      C1071   1.293       .  A
O1048     Zr1064   2.443       .  S
O1049      C1072   1.295       .  A
O1049     Zr1065   2.450       .  S
O1050      C1073   1.293       .  A
O1050     Zr2289   2.439       .  S
O1051      C1074   1.291       .  A
O1051     Zr2288   2.433       .  S
O1052      C1075   1.295       .  A
O1053      C1076   1.296       .  A
O1053     Zr1066   2.449       .  S
O1054      C1075   1.289       .  A
O1054     Zr1064   2.426       .  S
O1055      C1076   1.292       .  A
O1055     Zr1065   2.437       .  S
O1056      C1071   1.289       .  A
O1057      C1074   1.290       .  A
O1058      C1073   1.291       .  A
O1058     Zr1063   2.430       .  S
O1059      C1072   1.289       .  A
O1059     Zr1062   2.422       .  S
O1060      C1069   1.295       .  A
O1060     Zr1066   2.448       .  S
O1061      C1070   1.293       .  A
O1061     Zr2290   2.442       .  S
Zr1062     O1080   2.337       .  S
Zr1063     O1955   2.339       .  S
Zr1063     O2269   2.343       .  S
Zr1063     O2291   2.339       .  S
Zr1063     O1996   2.342       .  S
Zr1064     O2275   2.433   1_455  S
Zr1064     O1068   2.338       .  S
Zr1064     O1078   2.334       .  S
Zr1065     O2274   2.439   1_455  S
Zr1065     O1067   2.341       .  S
Zr1065     O1080   2.332       .  S
Zr1066     O2285   2.442   1_455  S
Zr1066     O1067   2.341       .  S
Zr1066     O1080   2.348       .  S
O1067     Zr2287   2.339   1_455  S
C1069      C1189   1.485       .  S
C1070      C1201   1.487       .  S
C1071      C1153   1.480       .  S
C1072      C1144   1.488       .  S
C1073      C1132   1.480       .  S
C1074      C1168   1.468       .  S
C1075      C1117   1.469       .  S
C1076      C1093   1.484       .  S
H1077      O1078   0.965       .  S
O1078     Zr1981   2.342   1_456  S
H1079      O1080   0.965       .  S
C1081      C1082   1.401       .  A
C1081      C1086   1.406       .  A
C1082      C1083   1.395       .  A
C1082      H1087   1.084       .  S
C1083      C1084   1.406       .  A
C1083      O2312   1.368       .  S
C1084      C1085   1.409       .  A
C1085      C1086   1.406       .  A
C1085      H1089   1.084       .  S
C1086      O1090   1.371       .  S
O1088      C2307   1.368       .  S
O1088      H1092   0.992       .  S
O1090      H1091   0.991       .  S
C1093      C1094   1.400       .  A
C1093      C1098   1.413       .  A
C1094      C1095   1.396       .  A
C1094      H1099   1.084       .  S
C1095      C1096   1.415       .  A
C1095      O1100   1.373       .  S
C1096      C1097   1.407       .  A
C1097      C1098   1.408       .  A
C1097      H1101   1.083       .  S
C1098      O1102   1.372       .  S
O1100      H1104   0.992       .  S
O1102      H1103   0.992       .  S
C1105      C1106   1.408       .  A
C1105      C1110   1.418       .  A
C1106      C1107   1.399       .  A
C1106      H1111   1.083       .  S
C1107      C1108   1.408       .  A
C1107      O1112   1.372       .  S
C1108      C1109   1.402       .  A
C1109      C1110   1.406       .  A
C1109      H1113   1.084       .  S
C1110      O1114   1.373       .  S
O1112      H1116   0.992       .  S
O1114      H1115   0.993       .  S
C1117      C1118   1.401       .  A
C1117      C1122   1.405       .  A
C1118      C1119   1.400       .  A
C1118      H1123   1.084       .  S
C1119      C1120   1.411       .  A
C1119      O1124   1.372       .  S
C1120      C1121   1.406       .  A
C1121      C1122   1.404       .  A
C1121      H2349   1.084   1_455  S
C1122      O2350   1.374   1_455  S
O1124      H1128   0.992       .  S
H1125      C2345   1.084       .  S
O1126      C2346   1.374       .  S
O1126      H1127   0.991       .  S
C1129      C1130   1.409       .  A
C1129      C1134   1.409       .  A
C1130      C1131   1.395       .  A
C1130      H1135   1.083       .  S
C1131      C1132   1.406       .  A
C1131      O1136   1.372       .  S
C1132      C1133   1.408       .  A
C1133      C1134   1.405       .  A
C1133      H1137   1.084       .  S
C1134      O1138   1.372       .  S
O1136      H1140   0.992       .  S
O1138      H1139   0.992       .  S
C1141      C1142   1.404       .  A
C1141      C1146   1.421       .  A
C1142      C1143   1.398       .  A
C1142      H1147   1.082       .  S
C1143      C1144   1.413       .  A
C1143      O1148   1.368       .  S
C1144      C1145   1.401       .  A
C1145      C1146   1.400       .  A
C1145      H1149   1.084       .  S
C1146      O1150   1.372       .  S
O1148      H1152   0.992       .  S
O1150      H1151   0.992       .  S
C1153      C1154   1.405       .  A
C1153      C1158   1.410       .  A
C1154      C1155   1.404       .  A
C1154      H1159   1.084       .  S
C1155      C1156   1.414       .  A
C1155      O1160   1.373       .  S
C1156      C1157   1.406       .  A
C1157      C1158   1.393       .  A
C1157      H1161   1.083       .  S
C1158      O1162   1.372       .  S
O1160      H1164   0.993       .  S
O1162      H1163   0.992       .  S
C1165      C1166   1.406       .  A
C1165      C1170   1.409       .  A
C1166      C1167   1.393       .  A
C1166      H1171   1.084       .  S
C1167      C1168   1.404       .  A
C1167      O1172   1.373       .  S
C1168      C1169   1.405       .  A
C1169      C1170   1.402       .  A
O1172      H1176   0.992       .  S
O1174      H1175   0.992       .  S
C1177      C1178   1.406       .  A
C1178      C1179   1.392       .  A
C1178      H1183   1.083       .  S
C1179      C1180   1.406       .  A
C1179      O1184   1.368       .  S
C1181      C1182   1.406       .  A
C1181      H1185   1.084       .  S
C1182      O1186   1.372       .  S
O1184      H1188   0.992       .  S
O1186      H1187   0.992       .  S
C1189      C1194   1.414       .  A
C1190      C1191   1.397   1_556  A
C1190      H1195   1.084       .  S
C1191      O1196   1.372   1_554  S
C1192      C1193   1.406       .  A
C1193      C1194   1.403       .  A
C1193      H1197   1.083       .  S
C1194      O1198   1.372       .  S
O1196      H1200   0.992   1_556  S
O1198      H1199   0.992       .  S
C1201      C1202   1.401       .  A
C1202      C1203   1.401       .  A
C1202      H1207   1.084       .  S
C1203      C1204   1.420       .  A
C1203      O1208   1.372       .  S
C1205      C1206   1.403       .  A
C1205      H1209   1.081       .  S
C1206      O1210   1.371       .  S
O1208      H1212   0.992       .  S
O1210      H1211   0.992       .  S
C1213      C1214   1.407       .  A
C1214      C1215   1.402       .  A
C1214      H1219   1.081       .  S
C1215      C1216   1.412       .  A
C1215      O1220   1.369       .  S
C1217      C1218   1.401   1_556  A
C1217      H1221   1.084       .  S
C1218      O1222   1.372   1_554  S
O1220      H1224   0.992       .  S
O1222      H1223   0.992   1_556  S
C1225      C1532   1.434       .  A
C1225      C1230   1.426       .  A
C1225      C1519   1.504       .  S
C1226      C1531   1.434       .  A
C1226      C1227   1.404       .  A
C1226      H1231   1.080       .  S
C1227      C1228   1.398       .  A
C1227      C1542   1.509       .  S
C1228      C1535   1.393       .  A
C1228      H1232   1.063       .  S
C1229      C1534   1.393       .  A
C1229      C1230   1.401   1_556  A
C1229      C1254   1.498   1_556  S
C1230      H1233   1.082       .  S
C1234      C1235   1.434       .  A
C1234      C1239   1.432       .  A
C1234      C1510   1.502       .  S
C1235      C1236   1.403       .  A
C1235      H1240   1.080       .  S
C1236      C1237   1.392   1_556  A
C1236      C1533   1.509       .  S
C1237      C1238   1.392   1_554  A
C1237      H1241   1.057       .  S
C1238      C1239   1.403       .  A
C1238      C1245   1.507       .  S
C1239      H1242   1.082       .  S
C1243      C1244   1.430       .  A
C1243      C1248   1.424       .  A
C1243      C1498   1.493       .  S
C1244      C1245   1.405   1_554  A
C1244      H1249   1.082       .  S
C1245      C1246   1.399       .  A
C1246      C1247   1.394   1_556  A
C1246      H1250   1.062       .  S
C1247      C1248   1.399       .  A
C1247      C1256   1.497       .  S
C1248      H1251   1.083       .  S
C1252      C1253   1.424       .  A
C1252      C1257   1.422       .  A
C1252      C1483   1.490       .  S
C1253      C1254   1.400   1_556  A
C1253      H1258   1.083       .  S
C1254      C1255   1.399       .  A
C1255      C1256   1.401       .  A
C1255      H1259   1.068       .  S
C1256      C1257   1.399   1_554  A
C1257      H1260   1.079       .  S
C1261      C1262   1.421       .  A
C1261      C1266   1.418       .  A
C1261      C1471   1.479       .  S
C1262      C1263   1.403       .  A
C1262      H1267   1.082       .  S
C1263      C1264   1.399       .  A
C1263      C1272   1.498       .  S
C1264      C1265   1.401       .  A
C1264      H1268   1.068       .  S
C1265      C1266   1.396       .  A
C1265      C1290   1.493       .  S
C1266      H1269   1.083       .  S
C1270      C1271   1.425       .  A
C1270      C1275   1.421       .  A
C1270      C1462   1.489       .  S
C1271      C1272   1.400       .  A
C1271      H1276   1.083       .  S
C1272      C1273   1.398       .  A
C1273      C1274   1.402       .  A
C1273      H1277   1.068       .  S
C1274      C1275   1.397       .  A
C1274      C1281   1.496       .  S
C1275      H1278   1.079       .  S
C1279      C1280   1.426       .  A
C1279      C1284   1.435       .  A
C1279      C1447   1.497       .  S
C1280      C1281   1.398       .  A
C1280      H1285   1.082       .  S
C1281      C1282   1.388       .  A
C1282      C1283   1.393       .  A
C1282      H1286   1.059       .  S
C1283      C1284   1.402       .  A
C1283      C1292   1.506       .  S
C1284      H1287   1.080       .  S
C1288      C1289   1.424       .  A
C1288      C1293   1.430       .  A
C1288      C1435   1.489       .  S
C1289      C1290   1.396       .  A
C1289      H1294   1.083       .  S
C1290      C1291   1.389       .  A
C1291      C1292   1.397       .  A
C1291      H1295   1.063       .  S
C1292      C1293   1.405       .  A
C1293      H1296   1.080       .  S
C1297      C1298   1.415       .  A
C1297      C1302   1.422       .  A
C1297      C1426   1.484       .  S
C1298      C1299   1.394       .  A
C1298      H1303   1.083       .  S
C1299      C1300   1.396       .  A
C1299      C1308   1.490       .  S
C1300      C1301   1.410       .  A
C1300      H1304   1.075       .  S
C1301      C1302   1.410       .  A
C1301      C1317   1.518       .  S
C1302      H1305   1.083       .  S
C1306      C1307   1.417       .  A
C1306      C1311   1.423       .  A
C1306      C1411   1.500       .  S
C1307      C1308   1.398       .  A
C1307      H1312   1.078       .  S
C1308      C1309   1.401       .  A
C1309      C1310   1.410       .  A
C1309      H1313   1.082       .  S
C1310      C1311   1.412       .  A
C1310      C1326   1.513       .  S
C1311      H1314   1.082       .  S
C1315      C1316   1.424       .  A
C1315      C1320   1.411       .  A
C1315      C1402   1.494       .  S
C1316      C1317   1.418       .  A
C1316      H1321   1.081       .  S
C1317      C1318   1.409       .  A
C1318      C1319   1.401       .  A
C1318      H1322   1.082       .  S
C1319      C1320   1.394       .  A
C1319      C1328   1.481       .  S
C1320      H1323   1.083       .  S
C1324      C1325   1.420       .  A
C1324      C1329   1.410       .  A
C1324      C1387   1.476       .  S
C1325      C1326   1.414       .  A
C1325      H1330   1.083       .  S
C1326      C1327   1.407       .  A
C1327      C1328   1.392       .  A
C1327      H1331   1.076       .  S
C1328      C1329   1.390       .  A
C1329      H1332   1.084       .  S
O1333      C1344   1.295       .  A
O1333     Zr1981   2.449       .  S
O1334      C1345   1.293       .  A
O1334     Zr1980   2.438   1_556  S
O1335      C1346   1.296       .  A
O1335     Zr1647   2.456       .  S
O1336      C1347   1.297       .  A
O1336     Zr1341   2.457       .  S
O1337      C1347   1.290       .  A
O1337     Zr1983   2.428       .  S
O1338      C1346   1.291       .  A
O1338     Zr1982   2.431       .  S
O1339      C1345   1.293       .  A
O1339     Zr1341   2.441   1_556  S
O1340      C1344   1.293       .  A
Zr1341     O1641   2.456   1_554  S
Zr1341     O1954   2.340       .  S
Zr1341     O2261   2.340   1_554  S
Zr1341     O1963   2.352       .  S
Zr1341     O2267   2.347   1_554  S
O1342     Zr1953   2.340   1_545  S
O1342     Zr1368   2.334       .  S
O1342     Zr1371   2.342       .  S
O1343     Zr2259   2.340   1_545  S
O1343     Zr1370   2.342       .  S
C1344      C1522   1.492       .  S
C1345      C1486   1.481       .  S
C1346      C1414   1.482       .  S
C1347      C1390   1.482       .  S
H1348      O1349   0.965       .  S
O1349     Zr2259   2.347   1_545  S
O1349     Zr1674   2.336       .  S
O1349     Zr1370   2.331       .  S
H1350      O1351   0.966       .  S
O1351     Zr1953   2.352   1_545  S
O1351     Zr1371   2.343       .  S
O1352      C1375   1.291       .  A
O1352     Zr1368   2.433       .  S
O1353      C1376   1.295       .  A
O1353     Zr1369   2.448   1_556  S
O1354      C1377   1.293       .  A
O1354     Zr1370   2.443       .  S
O1355      C1378   1.295       .  A
O1355     Zr1371   2.450       .  S
O1356      C1379   1.293       .  A
O1357      C1380   1.291       .  A
O1358      C1381   1.295       .  A
O1358     Zr1678   2.458       .  S
O1359      C1382   1.296       .  A
O1359     Zr1372   2.449   1_554  S
O1360      C1381   1.289       .  A
O1360     Zr1370   2.426       .  S
O1361      C1382   1.292       .  A
O1361     Zr1371   2.437       .  S
O1362      C1377   1.289       .  A
O1362     Zr1674   2.419       .  S
O1363      C1380   1.290       .  A
O1363     Zr1675   2.430       .  S
O1364      C1379   1.291       .  A
O1364     Zr1369   2.430       .  S
O1365      C1378   1.289       .  A
O1365     Zr1368   2.422       .  S
O1366      C1375   1.295       .  A
O1366     Zr1372   2.448   1_554  S
O1367      C1376   1.293       .  A
Zr1368     O1946   2.438   1_544  S
Zr1368     O1668   2.419   1_554  S
Zr1368     O1655   2.336   1_554  S
Zr1368     O1680   2.336   1_554  S
Zr1368     O1386   2.337       .  S
Zr1369     O1945   2.449   1_545  S
Zr1369     O1669   2.430   1_554  S
Zr1370     O1950   2.431   1_545  S
Zr1370     O1374   2.338       .  S
Zr1370     O1384   2.334       .  S
Zr1371     O1949   2.428   1_545  S
Zr1371     O1373   2.341       .  S
Zr1371     O1386   2.332       .  S
Zr1372     O1664   2.458       .  S
Zr1372     O1373   2.341   1_556  S
Zr1372     O1680   2.336       .  S
Zr1372     O1386   2.348   1_556  S
Zr1372     O1690   2.346       .  S
O1374     Zr1674   2.336       .  S
O1374     Zr1678   2.336       .  S
C1375      C1495   1.485       .  S
C1376      C1507   1.487       .  S
C1377      C1459   1.480       .  S
C1378      C1450   1.488       .  S
C1379      C1438   1.480       .  S
C1380      C1474   1.468       .  S
C1381      C1423   1.469       .  S
C1382      C1399   1.484       .  S
H1383      O1384   0.965       .  S
O1384     Zr1678   2.346       .  S
H1385      O1386   0.965       .  S
C1387      C1388   1.401       .  A
C1387      C1392   1.406       .  A
C1388      C1389   1.395       .  A
C1388      H1393   1.084       .  S
C1389      C1390   1.406       .  A
C1390      C1391   1.409       .  A
C1391      C1392   1.406       .  A
C1391      H1395   1.084       .  S
C1392      O1396   1.371       .  S
O1394      H1398   0.992       .  S
O1396      H1397   0.991       .  S
C1399      C1400   1.400       .  A
C1399      C1404   1.413       .  A
C1400      C1401   1.396       .  A
C1400      H1405   1.084       .  S
C1401      C1402   1.415       .  A
C1401      O1406   1.373       .  S
C1402      C1403   1.407       .  A
C1403      C1404   1.408       .  A
C1403      H1407   1.083       .  S
C1404      O1408   1.372       .  S
O1406      H1410   0.992       .  S
O1408      H1409   0.992       .  S
C1411      C1412   1.408       .  A
C1411      C1416   1.418       .  A
C1412      C1413   1.399       .  A
C1412      H1417   1.083       .  S
C1413      C1414   1.408       .  A
C1413      O1418   1.372       .  S
C1414      C1415   1.402       .  A
C1415      C1416   1.406       .  A
C1415      H1419   1.084       .  S
C1416      O1420   1.373       .  S
O1418      H1422   0.992       .  S
O1420      H1421   0.993       .  S
C1423      C1424   1.401       .  A
C1423      C1428   1.405       .  A
C1424      C1425   1.400       .  A
C1424      H1429   1.084       .  S
C1425      C1426   1.411       .  A
C1425      O1430   1.372       .  S
C1426      C1427   1.406       .  A
C1427      C1428   1.404       .  A
O1430      H1434   0.992       .  S
O1432      H1433   0.991       .  S
C1435      C1436   1.409       .  A
C1435      C1440   1.409       .  A
C1436      C1437   1.395       .  A
C1436      H1441   1.083       .  S
C1437      C1438   1.406       .  A
C1437      O1442   1.372       .  S
C1438      C1439   1.408       .  A
C1439      C1440   1.405       .  A
C1439      H1443   1.084       .  S
C1440      O1444   1.372       .  S
O1442      H1446   0.992       .  S
O1444      H1445   0.992       .  S
C1447      C1448   1.404       .  A
C1447      C1452   1.421       .  A
C1448      C1449   1.398       .  A
C1448      H1453   1.082       .  S
C1449      C1450   1.413       .  A
C1449      O1454   1.368       .  S
C1450      C1451   1.401       .  A
C1451      C1452   1.400       .  A
C1451      H1455   1.084       .  S
C1452      O1456   1.372       .  S
O1454      H1458   0.992       .  S
O1456      H1457   0.992       .  S
C1459      C1460   1.405       .  A
C1459      C1464   1.410       .  A
C1460      C1461   1.404       .  A
C1460      H1465   1.084       .  S
C1461      C1462   1.414       .  A
C1461      O1466   1.373       .  S
C1462      C1463   1.406       .  A
C1463      C1464   1.393       .  A
C1463      H1467   1.083       .  S
C1464      O1468   1.372       .  S
O1466      H1470   0.993       .  S
O1468      H1469   0.992       .  S
C1471      C1472   1.406       .  A
C1471      C1476   1.409       .  A
C1472      C1473   1.393       .  A
C1472      H1477   1.084       .  S
C1473      C1474   1.404       .  A
C1473      O1478   1.373       .  S
C1474      C1475   1.405       .  A
C1475      C1476   1.402       .  A
C1475      H2091   1.084   1_545  S
C1476      O2092   1.371   1_545  S
O1478      H1482   0.992       .  S
H1479      C2087   1.084       .  S
O1480      C2088   1.371       .  S
O1480      H1481   0.992       .  S
C1483      C1484   1.406   1_556  A
C1483      C1794   1.413       .  A
C1484      C1485   1.392       .  A
C1484      H1489   1.083       .  S
C1485      C1486   1.406   1_554  A
C1485      O1490   1.368       .  S
C1486      C1793   1.406       .  A
C1487      C1792   1.406       .  A
C1487      C1488   1.406       .  A
C1487      H1491   1.084       .  S
C1488      C1789   1.413       .  A
C1488      O1492   1.372       .  S
O1490      H1494   0.992       .  S
O1492      H1493   0.992       .  S
C1495      C1802   1.401   1_554  A
C1495      C1500   1.414       .  A
C1496      C1801   1.401       .  A
C1496      C1497   1.397       .  A
C1496      H1501   1.084       .  S
C1497      C1804   1.417       .  A
C1497      O1502   1.372       .  S
C1498      C1803   1.417       .  A
C1498      C1499   1.406       .  A
C1499      C1500   1.403       .  A
C1499      H1503   1.083       .  S
C1500      O1504   1.372       .  S
O1502      H1506   0.992       .  S
O1504      H1505   0.992       .  S
C1507      C1508   1.401   1_556  A
C1507      C1818   1.411       .  A
C1508      C1509   1.401   1_554  A
C1508      H1513   1.084       .  S
C1509      C1510   1.419       .  A
C1509      O1514   1.372   1_556  S
C1510      C1817   1.409       .  A
C1511      C1816   1.409       .  A
C1511      C1512   1.403       .  A
C1511      H1515   1.081       .  S
C1512      C1813   1.411       .  A
C1512      O1516   1.371       .  S
O1514      H1518   0.992       .  S
O1516      H1517   0.992       .  S
C1519      C1520   1.407       .  A
C1519      C1830   1.421       .  A
C1520      C1521   1.402       .  A
C1520      H1525   1.081       .  S
C1521      C1522   1.412       .  A
C1521      O1526   1.369       .  S
C1522      C1829   1.402   1_554  A
C1523      C1828   1.402       .  A
C1523      C1524   1.401       .  A
C1523      H1527   1.084       .  S
C1524      C1825   1.421       .  A
C1524      O1528   1.372       .  S
O1526      H1530   0.992       .  S
O1528      H1529   0.992       .  S
C1531      C1536   1.426       .  A
C1531      C1825   1.504       .  S
C1532      C1533   1.404   1_554  A
C1532      H1537   1.080       .  S
C1533      C1534   1.398       .  A
C1534      H1538   1.063       .  S
C1535      C1536   1.401       .  A
C1535      C1560   1.498       .  S
C1536      H1539   1.082       .  S
C1540      C1541   1.434       .  A
C1540      C1545   1.432       .  A
C1540      C1816   1.502       .  S
C1541      C1542   1.403       .  A
C1541      H1546   1.080       .  S
C1542      C1543   1.392       .  A
C1543      C1544   1.392       .  A
C1543      H1547   1.057       .  S
C1544      C1545   1.403       .  A
C1544      C1551   1.507       .  S
C1545      H1548   1.082       .  S
C1549      C1550   1.430       .  A
C1549      C1554   1.424       .  A
C1549      C1804   1.493       .  S
C1550      C1551   1.405       .  A
C1550      H1555   1.082       .  S
C1551      C1552   1.399       .  A
C1552      C1553   1.394       .  A
C1552      H1556   1.062       .  S
C1553      C1554   1.399       .  A
C1553      C1562   1.497       .  S
C1554      H1557   1.083       .  S
C1558      C1559   1.424       .  A
C1558      C1563   1.422       .  A
C1558      C1789   1.491       .  S
C1559      C1560   1.400       .  A
C1559      H1564   1.083       .  S
C1560      C1561   1.399       .  A
C1561      C1562   1.401       .  A
C1561      H1565   1.068       .  S
C1562      C1563   1.399       .  A
C1563      H1566   1.079       .  S
C1567      C1568   1.421       .  A
C1567      C1572   1.418       .  A
C1567      C1777   1.479       .  S
C1568      C1569   1.403       .  A
C1568      H1573   1.082       .  S
C1569      C1570   1.399       .  A
C1569      C1578   1.498       .  S
C1570      C1571   1.401       .  A
C1570      H1574   1.068       .  S
C1571      C1572   1.396       .  A
C1571      C1596   1.493       .  S
C1572      H1575   1.083       .  S
C1576      C1577   1.425       .  A
C1576      C1581   1.421       .  A
C1576      C1768   1.489       .  S
C1577      C1578   1.400       .  A
C1577      H1582   1.083       .  S
C1578      C1579   1.398       .  A
C1579      C1580   1.402       .  A
C1579      H1583   1.068       .  S
C1580      C1581   1.397       .  A
C1580      C1587   1.496       .  S
C1581      H1584   1.079       .  S
C1585      C1586   1.426       .  A
C1585      C1590   1.435       .  A
C1585      C1753   1.497       .  S
C1586      C1587   1.398       .  A
C1586      H1591   1.082       .  S
C1587      C1588   1.388       .  A
C1588      C1589   1.393       .  A
C1588      H1592   1.059       .  S
C1589      C1590   1.402       .  A
C1589      C1598   1.506       .  S
C1590      H1593   1.080       .  S
C1594      C1595   1.424       .  A
C1594      C1599   1.430       .  A
C1594      C1741   1.489       .  S
C1595      C1596   1.396       .  A
C1595      H1600   1.083       .  S
C1596      C1597   1.389       .  A
C1597      C1598   1.397       .  A
C1597      H1601   1.063       .  S
C1598      C1599   1.405       .  A
C1599      H1602   1.080       .  S
C1603      C1604   1.415       .  A
C1603      C1608   1.422       .  A
C1603      C1732   1.484       .  S
C1604      C1605   1.394       .  A
C1604      H1609   1.083       .  S
C1605      C1606   1.396       .  A
C1605      C1614   1.490       .  S
C1606      C1607   1.410       .  A
C1606      H1610   1.075       .  S
C1607      C1608   1.410       .  A
C1607      C1623   1.518       .  S
C1608      H1611   1.083       .  S
C1612      C1613   1.417       .  A
C1612      C1617   1.423       .  A
C1612      C1717   1.500       .  S
C1613      C1614   1.398       .  A
C1613      H1618   1.078       .  S
C1614      C1615   1.401       .  A
C1615      C1616   1.410       .  A
C1615      H1619   1.082       .  S
C1616      C1617   1.412       .  A
C1616      C1632   1.513       .  S
C1617      H1620   1.082       .  S
C1621      C1622   1.424       .  A
C1621      C1626   1.411       .  A
C1621      C1708   1.494       .  S
C1622      C1623   1.418       .  A
C1622      H1627   1.081       .  S
C1623      C1624   1.409       .  A
C1624      C1625   1.401       .  A
C1624      H1628   1.082       .  S
C1625      C1626   1.394       .  A
C1625      C1634   1.481       .  S
C1626      H1629   1.083       .  S
C1630      C1631   1.420       .  A
C1630      C1635   1.410       .  A
C1630      C1693   1.476       .  S
C1631      C1632   1.414       .  A
C1631      H1636   1.083       .  S
C1632      C1633   1.407       .  A
C1633      C1634   1.392       .  A
C1633      H1637   1.076       .  S
C1634      C1635   1.390       .  A
C1635      H1638   1.084       .  S
O1639      C1650   1.295       .  A
O1639     Zr2287   2.449       .  S
O1640      C1651   1.293       .  A
O1640     Zr2286   2.438       .  S
O1641      C1652   1.296       .  A
O1642      C1653   1.297       .  A
O1642     Zr1647   2.457       .  S
O1643      C1653   1.290       .  A
O1643     Zr2289   2.428       .  S
O1644      C1652   1.291       .  A
O1644     Zr2288   2.431       .  S
O1645      C1651   1.293       .  A
O1645     Zr1647   2.441       .  S
O1646      C1650   1.293       .  A
Zr1647     O2260   2.340       .  S
Zr1647     O1955   2.340       .  S
Zr1647     O2269   2.352       .  S
Zr1647     O1961   2.347       .  S
O1648     Zr2259   2.340   1_545  S
O1648     Zr1674   2.334       .  S
O1648     Zr1677   2.342       .  S
O1649     Zr1953   2.340   1_546  S
O1649     Zr1676   2.342       .  S
C1650      C1828   1.492       .  S
C1651      C1792   1.481       .  S
C1652      C1720   1.482       .  S
C1653      C1696   1.482       .  S
H1654      O1655   0.965       .  S
O1655     Zr1953   2.347   1_546  S
O1655     Zr1676   2.331       .  S
H1656      O1657   0.966       .  S
O1657     Zr2259   2.352   1_545  S
O1657     Zr1677   2.343       .  S
O1658      C1681   1.291       .  A
O1658     Zr1674   2.433       .  S
O1659      C1682   1.295       .  A
O1659     Zr1675   2.448       .  S
O1660      C1683   1.293       .  A
O1660     Zr1676   2.443       .  S
O1661      C1684   1.295       .  A
O1661     Zr1677   2.450       .  S
O1662      C1685   1.293       .  A
O1663      C1686   1.291       .  A
O1664      C1687   1.295       .  A
O1665      C1688   1.296       .  A
O1665     Zr1678   2.449       .  S
O1666      C1687   1.289       .  A
O1666     Zr1676   2.426       .  S
O1667      C1688   1.292       .  A
O1667     Zr1677   2.437       .  S
O1668      C1683   1.289       .  A
O1669      C1686   1.290       .  A
O1670      C1685   1.291       .  A
O1670     Zr1675   2.430       .  S
O1671      C1684   1.289       .  A
O1671     Zr1674   2.422       .  S
O1672      C1681   1.295       .  A
O1672     Zr1678   2.448       .  S
O1673      C1682   1.293       .  A
Zr1674     O2252   2.438   1_545  S
Zr1674     O1692   2.337       .  S
Zr1675     O2251   2.449   1_545  S
Zr1676     O2256   2.431   1_545  S
Zr1676     O1680   2.338       .  S
Zr1676     O1690   2.334       .  S
Zr1677     O2255   2.428   1_545  S
Zr1677     O1679   2.341       .  S
Zr1677     O1692   2.332       .  S
Zr1678     O1679   2.341       .  S
Zr1678     O1692   2.348       .  S
C1681      C1801   1.485       .  S
C1682      C1813   1.487       .  S
C1683      C1765   1.480       .  S
C1684      C1756   1.488       .  S
C1685      C1744   1.480       .  S
C1686      C1780   1.468       .  S
C1687      C1729   1.469       .  S
C1688      C1705   1.484       .  S
H1689      O1690   0.965       .  S
H1691      O1692   0.965       .  S
C1693      C1694   1.401       .  A
C1693      C1698   1.406       .  A
C1694      C1695   1.395       .  A
C1694      H1699   1.084       .  S
C1695      C1696   1.406       .  A
C1696      C1697   1.409       .  A
C1697      C1698   1.406       .  A
C1697      H1701   1.084       .  S
C1698      O1702   1.371       .  S
O1700      H1704   0.992       .  S
O1702      H1703   0.991       .  S
C1705      C1706   1.400       .  A
C1705      C1710   1.413       .  A
C1706      C1707   1.396       .  A
C1706      H1711   1.084       .  S
C1707      C1708   1.415       .  A
C1707      O1712   1.373       .  S
C1708      C1709   1.407       .  A
C1709      C1710   1.408       .  A
C1709      H1713   1.083       .  S
C1710      O1714   1.372       .  S
O1712      H1716   0.992       .  S
O1714      H1715   0.992       .  S
C1717      C1718   1.408       .  A
C1717      C1722   1.418       .  A
C1718      C1719   1.399       .  A
C1718      H1723   1.083       .  S
C1719      C1720   1.408       .  A
C1719      O1724   1.372       .  S
C1720      C1721   1.402       .  A
C1721      C1722   1.406       .  A
C1721      H1725   1.084       .  S
C1722      O1726   1.373       .  S
O1724      H1728   0.992       .  S
O1726      H1727   0.993       .  S
C1729      C1730   1.401       .  A
C1729      C1734   1.405       .  A
C1730      C1731   1.400       .  A
C1730      H1735   1.084       .  S
C1731      C1732   1.411       .  A
C1731      O1736   1.372       .  S
C1732      C1733   1.406       .  A
C1733      C1734   1.404       .  A
O1736      H1740   0.992       .  S
O1738      H1739   0.991       .  S
C1741      C1742   1.409       .  A
C1741      C1746   1.409       .  A
C1742      C1743   1.395       .  A
C1742      H1747   1.083       .  S
C1743      C1744   1.406       .  A
C1743      O1748   1.372       .  S
C1744      C1745   1.408       .  A
C1745      C1746   1.405       .  A
C1745      H1749   1.084       .  S
C1746      O1750   1.372       .  S
O1748      H1752   0.992       .  S
O1750      H1751   0.992       .  S
C1753      C1754   1.404       .  A
C1753      C1758   1.421       .  A
C1754      C1755   1.398       .  A
C1754      H1759   1.082       .  S
C1755      C1756   1.413       .  A
C1755      O1760   1.368       .  S
C1756      C1757   1.401       .  A
C1757      C1758   1.400       .  A
C1757      H1761   1.084       .  S
C1758      O1762   1.372       .  S
O1760      H1764   0.992       .  S
O1762      H1763   0.992       .  S
C1765      C1766   1.405       .  A
C1765      C1770   1.410       .  A
C1766      C1767   1.404       .  A
C1766      H1771   1.084       .  S
C1767      C1768   1.414       .  A
C1767      O1772   1.373       .  S
C1768      C1769   1.406       .  A
C1769      C1770   1.393       .  A
C1769      H1773   1.083       .  S
C1770      O1774   1.372       .  S
O1772      H1776   0.993       .  S
O1774      H1775   0.992       .  S
C1777      C1778   1.406       .  A
C1777      C1782   1.409       .  A
C1778      C1779   1.393       .  A
C1778      H1783   1.084       .  S
C1779      C1780   1.404       .  A
C1779      O1784   1.373       .  S
C1780      C1781   1.405       .  A
C1781      C1782   1.402       .  A
C1781      H2397   1.084   1_545  S
C1782      O2398   1.371   1_545  S
O1784      H1788   0.992       .  S
H1785      C2393   1.084       .  S
O1786      C2394   1.371       .  S
O1786      H1787   0.992       .  S
C1789      C1790   1.406       .  A
C1790      C1791   1.392       .  A
C1790      H1795   1.083       .  S
C1791      C1792   1.406       .  A
C1791      O1796   1.368       .  S
C1793      C1794   1.406       .  A
C1793      H1797   1.084       .  S
C1794      O1798   1.372       .  S
O1796      H1800   0.992       .  S
O1798      H1799   0.992       .  S
C1801      C1806   1.414       .  A
C1802      C1803   1.397   1_556  A
C1802      H1807   1.084       .  S
C1803      O1808   1.372   1_554  S
C1804      C1805   1.406       .  A
C1805      C1806   1.403       .  A
C1805      H1809   1.083       .  S
C1806      O1810   1.372       .  S
O1808      H1812   0.992   1_556  S
O1810      H1811   0.992       .  S
C1813      C1814   1.401       .  A
C1814      C1815   1.401       .  A
C1814      H1819   1.084       .  S
C1815      C1816   1.420       .  A
C1815      O1820   1.372       .  S
C1817      C1818   1.403       .  A
C1817      H1821   1.081       .  S
C1818      O1822   1.371       .  S
O1820      H1824   0.992       .  S
O1822      H1823   0.992       .  S
C1825      C1826   1.407       .  A
C1826      C1827   1.402       .  A
C1826      H1831   1.081       .  S
C1827      C1828   1.412       .  A
C1827      O1832   1.369       .  S
C1829      C1830   1.401   1_556  A
C1829      H1833   1.084       .  S
C1830      O1834   1.372   1_554  S
O1832      H1836   0.992       .  S
O1834      H1835   0.992   1_556  S
C1837      C2144   1.434       .  A
C1837      C1842   1.426       .  A
C1837      C2131   1.504       .  S
C1838      C2143   1.434       .  A
C1838      C1839   1.404       .  A
C1838      H1843   1.080       .  S
C1839      C1840   1.398       .  A
C1839      C2154   1.509       .  S
C1840      C2147   1.393       .  A
C1840      H1844   1.063       .  S
C1841      C2146   1.393       .  A
C1841      C1842   1.401   1_556  A
C1841      C1866   1.498   1_556  S
C1842      H1845   1.082       .  S
C1846      C1847   1.434       .  A
C1846      C1851   1.432       .  A
C1846      C2122   1.502       .  S
C1847      C1848   1.403       .  A
C1847      H1852   1.080       .  S
C1848      C1849   1.392   1_556  A
C1848      C2145   1.509       .  S
C1849      C1850   1.392   1_554  A
C1849      H1853   1.057       .  S
C1850      C1851   1.403       .  A
C1850      C1857   1.507       .  S
C1851      H1854   1.082       .  S
C1855      C1856   1.430       .  A
C1855      C1860   1.424       .  A
C1855      C2110   1.493       .  S
C1856      C1857   1.405   1_554  A
C1856      H1861   1.082       .  S
C1857      C1858   1.399       .  A
C1858      C1859   1.394   1_556  A
C1858      H1862   1.062       .  S
C1859      C1860   1.399       .  A
C1859      C1868   1.497       .  S
C1860      H1863   1.083       .  S
C1864      C1865   1.424       .  A
C1864      C1869   1.422       .  A
C1864      C2095   1.491       .  S
C1865      C1866   1.400   1_556  A
C1865      H1870   1.083       .  S
C1866      C1867   1.399       .  A
C1867      C1868   1.401       .  A
C1867      H1871   1.068       .  S
C1868      C1869   1.399   1_554  A
C1869      H1872   1.079       .  S
C1873      C1874   1.421       .  A
C1873      C1878   1.418       .  A
C1873      C2083   1.479       .  S
C1874      C1875   1.403       .  A
C1874      H1879   1.082       .  S
C1875      C1876   1.399       .  A
C1875      C1884   1.498       .  S
C1876      C1877   1.401       .  A
C1876      H1880   1.068       .  S
C1877      C1878   1.396       .  A
C1877      C1902   1.493       .  S
C1878      H1881   1.083       .  S
C1882      C1883   1.425       .  A
C1882      C1887   1.421       .  A
C1882      C2074   1.489       .  S
C1883      C1884   1.400       .  A
C1883      H1888   1.083       .  S
C1884      C1885   1.398       .  A
C1885      C1886   1.402       .  A
C1885      H1889   1.068       .  S
C1886      C1887   1.397       .  A
C1886      C1893   1.496       .  S
C1887      H1890   1.079       .  S
C1891      C1892   1.426       .  A
C1891      C1896   1.435       .  A
C1891      C2059   1.497       .  S
C1892      C1893   1.398       .  A
C1892      H1897   1.082       .  S
C1893      C1894   1.388       .  A
C1894      C1895   1.393       .  A
C1894      H1898   1.059       .  S
C1895      C1896   1.402       .  A
C1895      C1904   1.506       .  S
C1896      H1899   1.080       .  S
C1900      C1901   1.424       .  A
C1900      C1905   1.430       .  A
C1900      C2047   1.489       .  S
C1901      C1902   1.396       .  A
C1901      H1906   1.083       .  S
C1902      C1903   1.389       .  A
C1903      C1904   1.397       .  A
C1903      H1907   1.063       .  S
C1904      C1905   1.405       .  A
C1905      H1908   1.080       .  S
C1909      C1910   1.415       .  A
C1909      C1914   1.422       .  A
C1909      C2038   1.484       .  S
C1910      C1911   1.394       .  A
C1910      H1915   1.083       .  S
C1911      C1912   1.396       .  A
C1911      C1920   1.490       .  S
C1912      C1913   1.410       .  A
C1912      H1916   1.075       .  S
C1913      C1914   1.410       .  A
C1913      C1929   1.518       .  S
C1914      H1917   1.083       .  S
C1918      C1919   1.417       .  A
C1918      C1923   1.423       .  A
C1918      C2023   1.500       .  S
C1919      C1920   1.398       .  A
C1919      H1924   1.078       .  S
C1920      C1921   1.401       .  A
C1921      C1922   1.410       .  A
C1921      H1925   1.082       .  S
C1922      C1923   1.412       .  A
C1922      C1938   1.513       .  S
C1923      H1926   1.082       .  S
C1927      C1928   1.424       .  A
C1927      C1932   1.411       .  A
C1927      C2014   1.494       .  S
C1928      C1929   1.418       .  A
C1928      H1933   1.081       .  S
C1929      C1930   1.409       .  A
C1930      C1931   1.401       .  A
C1930      H1934   1.082       .  S
C1931      C1932   1.394       .  A
C1931      C1940   1.481       .  S
C1932      H1935   1.083       .  S
C1936      C1937   1.420       .  A
C1936      C1941   1.410       .  A
C1936      C1999   1.476       .  S
C1937      C1938   1.414       .  A
C1937      H1942   1.083       .  S
C1938      C1939   1.407       .  A
C1939      C1940   1.392       .  A
C1939      H1943   1.076       .  S
C1940      C1941   1.390       .  A
C1941      H1944   1.084       .  S
O1945      C1956   1.295       .  A
O1946      C1957   1.293       .  A
O1947      C1958   1.296       .  A
O1947     Zr2259   2.456       .  S
O1948      C1959   1.297       .  A
O1948     Zr1953   2.457       .  S
O1949      C1959   1.290       .  A
O1950      C1958   1.291       .  A
O1951      C1957   1.293       .  A
O1951     Zr1953   2.441   1_556  S
O1952      C1956   1.293       .  A
Zr1953     O2253   2.456   1_554  S
O1954     Zr1980   2.334       .  S
O1954     Zr1983   2.342       .  S
O1955     Zr1982   2.342       .  S
C1956      C2134   1.492       .  S
C1957      C2098   1.481       .  S
C1958      C2026   1.482       .  S
C1959      C2002   1.482       .  S
H1960      O1961   0.965       .  S
O1961     Zr2286   2.336       .  S
O1961     Zr1982   2.331       .  S
H1962      O1963   0.966       .  S
O1963     Zr1983   2.343       .  S
O1964      C1987   1.291       .  A
O1964     Zr1980   2.433       .  S
O1965      C1988   1.295       .  A
O1965     Zr1981   2.448   1_556  S
O1966      C1989   1.293       .  A
O1966     Zr1982   2.443       .  S
O1967      C1990   1.295       .  A
O1967     Zr1983   2.450       .  S
O1968      C1991   1.293       .  A
O1969      C1992   1.291       .  A
O1970      C1993   1.295       .  A
O1970     Zr2290   2.458       .  S
O1971      C1994   1.296       .  A
O1971     Zr1984   2.449   1_554  S
O1972      C1993   1.289       .  A
O1972     Zr1982   2.426       .  S
O1973      C1994   1.292       .  A
O1973     Zr1983   2.437       .  S
O1974      C1989   1.289       .  A
O1974     Zr2286   2.419       .  S
O1975      C1992   1.290       .  A
O1975     Zr2287   2.430       .  S
O1976      C1991   1.291       .  A
O1976     Zr1981   2.430       .  S
O1977      C1990   1.289       .  A
O1977     Zr1980   2.422       .  S
O1978      C1987   1.295       .  A
O1978     Zr1984   2.448   1_554  S
O1979      C1988   1.293       .  A
Zr1980     O2280   2.419   1_554  S
Zr1980     O2267   2.336   1_554  S
Zr1980     O2292   2.336   1_554  S
Zr1980     O1998   2.337       .  S
Zr1981     O2281   2.430   1_554  S
Zr1982     O1986   2.338       .  S
Zr1982     O1996   2.334       .  S
Zr1983     O1985   2.341       .  S
Zr1983     O1998   2.332       .  S
Zr1984     O2276   2.458       .  S
Zr1984     O1985   2.341   1_556  S
Zr1984     O2292   2.336       .  S
Zr1984     O1998   2.348   1_556  S
Zr1984     O2302   2.346       .  S
O1986     Zr2286   2.336       .  S
O1986     Zr2290   2.336       .  S
C1987      C2107   1.485       .  S
C1988      C2119   1.487       .  S
C1989      C2071   1.480       .  S
C1990      C2062   1.488       .  S
C1991      C2050   1.480       .  S
C1992      C2086   1.468       .  S
C1993      C2035   1.469       .  S
C1994      C2011   1.484       .  S
H1995      O1996   0.965       .  S
O1996     Zr2290   2.346       .  S
H1997      O1998   0.965       .  S
C1999      C2000   1.401       .  A
C1999      C2004   1.406       .  A
C2000      C2001   1.395       .  A
C2000      H2005   1.084       .  S
C2001      C2002   1.406       .  A
C2002      C2003   1.409       .  A
C2003      C2004   1.406       .  A
C2003      H2007   1.084       .  S
C2004      O2008   1.371       .  S
O2006      H2010   0.992       .  S
O2008      H2009   0.991       .  S
C2011      C2012   1.400       .  A
C2011      C2016   1.413       .  A
C2012      C2013   1.396       .  A
C2012      H2017   1.084       .  S
C2013      C2014   1.415       .  A
C2013      O2018   1.373       .  S
C2014      C2015   1.407       .  A
C2015      C2016   1.408       .  A
C2015      H2019   1.083       .  S
C2016      O2020   1.372       .  S
O2018      H2022   0.992       .  S
O2020      H2021   0.992       .  S
C2023      C2024   1.408       .  A
C2023      C2028   1.418       .  A
C2024      C2025   1.399       .  A
C2024      H2029   1.083       .  S
C2025      C2026   1.408       .  A
C2025      O2030   1.372       .  S
C2026      C2027   1.402       .  A
C2027      C2028   1.406       .  A
C2027      H2031   1.084       .  S
C2028      O2032   1.373       .  S
O2030      H2034   0.992       .  S
O2032      H2033   0.993       .  S
C2035      C2036   1.401       .  A
C2035      C2040   1.405       .  A
C2036      C2037   1.400       .  A
C2036      H2041   1.084       .  S
C2037      C2038   1.411       .  A
C2037      O2042   1.372       .  S
C2038      C2039   1.406       .  A
C2039      C2040   1.404       .  A
O2042      H2046   0.992       .  S
O2044      H2045   0.991       .  S
C2047      C2048   1.409       .  A
C2047      C2052   1.409       .  A
C2048      C2049   1.395       .  A
C2048      H2053   1.083       .  S
C2049      C2050   1.406       .  A
C2049      O2054   1.372       .  S
C2050      C2051   1.408       .  A
C2051      C2052   1.405       .  A
C2051      H2055   1.084       .  S
C2052      O2056   1.372       .  S
O2054      H2058   0.992       .  S
O2056      H2057   0.992       .  S
C2059      C2060   1.404       .  A
C2059      C2064   1.421       .  A
C2060      C2061   1.398       .  A
C2060      H2065   1.082       .  S
C2061      C2062   1.413       .  A
C2061      O2066   1.368       .  S
C2062      C2063   1.401       .  A
C2063      C2064   1.400       .  A
C2063      H2067   1.084       .  S
C2064      O2068   1.372       .  S
O2066      H2070   0.992       .  S
O2068      H2069   0.992       .  S
C2071      C2072   1.405       .  A
C2071      C2076   1.410       .  A
C2072      C2073   1.404       .  A
C2072      H2077   1.084       .  S
C2073      C2074   1.414       .  A
C2073      O2078   1.373       .  S
C2074      C2075   1.406       .  A
C2075      C2076   1.393       .  A
C2075      H2079   1.083       .  S
C2076      O2080   1.372       .  S
O2078      H2082   0.993       .  S
O2080      H2081   0.992       .  S
C2083      C2084   1.406       .  A
C2083      C2088   1.409       .  A
C2084      C2085   1.393       .  A
C2084      H2089   1.084       .  S
C2085      C2086   1.404       .  A
C2085      O2090   1.373       .  S
C2086      C2087   1.405       .  A
C2087      C2088   1.402       .  A
O2090      H2094   0.992       .  S
O2092      H2093   0.992       .  S
C2095      C2096   1.406   1_556  A
C2095      C2406   1.413       .  A
C2096      C2097   1.392       .  A
C2096      H2101   1.083       .  S
C2097      C2098   1.406   1_554  A
C2097      O2102   1.368       .  S
C2098      C2405   1.406       .  A
C2099      C2404   1.406       .  A
C2099      C2100   1.406       .  A
C2099      H2103   1.084       .  S
C2100      C2401   1.413       .  A
C2100      O2104   1.372       .  S
O2102      H2106   0.992       .  S
O2104      H2105   0.992       .  S
C2107      C2414   1.401   1_554  A
C2107      C2112   1.414       .  A
C2108      C2413   1.401       .  A
C2108      C2109   1.397       .  A
C2108      H2113   1.084       .  S
C2109      C2416   1.417       .  A
C2109      O2114   1.372       .  S
C2110      C2415   1.417       .  A
C2110      C2111   1.406       .  A
C2111      C2112   1.403       .  A
C2111      H2115   1.083       .  S
C2112      O2116   1.372       .  S
O2114      H2118   0.992       .  S
O2116      H2117   0.992       .  S
C2119      C2120   1.401   1_556  A
C2119      C2430   1.411       .  A
C2120      C2121   1.401   1_554  A
C2120      H2125   1.084       .  S
C2121      C2122   1.420       .  A
C2121      O2126   1.372   1_556  S
C2122      C2429   1.409       .  A
C2123      C2428   1.409       .  A
C2123      C2124   1.403       .  A
C2123      H2127   1.081       .  S
C2124      C2425   1.411       .  A
C2124      O2128   1.371       .  S
O2126      H2130   0.992       .  S
O2128      H2129   0.992       .  S
C2131      C2132   1.407       .  A
C2131      C2442   1.421       .  A
C2132      C2133   1.402       .  A
C2132      H2137   1.081       .  S
C2133      C2134   1.412       .  A
C2133      O2138   1.369       .  S
C2134      C2441   1.402   1_554  A
C2135      C2440   1.402       .  A
C2135      C2136   1.401       .  A
C2135      H2139   1.084       .  S
C2136      C2437   1.421       .  A
C2136      O2140   1.372       .  S
O2138      H2142   0.992       .  S
O2140      H2141   0.992       .  S
C2143      C2148   1.426       .  A
C2143      C2437   1.504       .  S
C2144      C2145   1.404   1_554  A
C2144      H2149   1.080       .  S
C2145      C2146   1.398       .  A
C2146      H2150   1.063       .  S
C2147      C2148   1.401       .  A
C2147      C2172   1.498       .  S
C2148      H2151   1.082       .  S
C2152      C2153   1.434       .  A
C2152      C2157   1.432       .  A
C2152      C2428   1.502       .  S
C2153      C2154   1.403       .  A
C2153      H2158   1.080       .  S
C2154      C2155   1.392       .  A
C2155      C2156   1.392       .  A
C2155      H2159   1.057       .  S
C2156      C2157   1.403       .  A
C2156      C2163   1.507       .  S
C2157      H2160   1.082       .  S
C2161      C2162   1.430       .  A
C2161      C2166   1.424       .  A
C2161      C2416   1.493       .  S
C2162      C2163   1.405       .  A
C2162      H2167   1.082       .  S
C2163      C2164   1.399       .  A
C2164      C2165   1.394       .  A
C2164      H2168   1.062       .  S
C2165      C2166   1.399       .  A
C2165      C2174   1.497       .  S
C2166      H2169   1.083       .  S
C2170      C2171   1.424       .  A
C2170      C2175   1.422       .  A
C2170      C2401   1.491       .  S
C2171      C2172   1.400       .  A
C2171      H2176   1.083       .  S
C2172      C2173   1.399       .  A
C2173      C2174   1.401       .  A
C2173      H2177   1.068       .  S
C2174      C2175   1.399       .  A
C2175      H2178   1.079       .  S
C2179      C2180   1.421       .  A
C2179      C2184   1.418       .  A
C2179      C2389   1.479       .  S
C2180      C2181   1.403       .  A
C2180      H2185   1.082       .  S
C2181      C2182   1.399       .  A
C2181      C2190   1.498       .  S
C2182      C2183   1.401       .  A
C2182      H2186   1.068       .  S
C2183      C2184   1.396       .  A
C2183      C2208   1.493       .  S
C2184      H2187   1.083       .  S
C2188      C2189   1.425       .  A
C2188      C2193   1.421       .  A
C2188      C2380   1.489       .  S
C2189      C2190   1.400       .  A
C2189      H2194   1.083       .  S
C2190      C2191   1.398       .  A
C2191      C2192   1.402       .  A
C2191      H2195   1.068       .  S
C2192      C2193   1.397       .  A
C2192      C2199   1.496       .  S
C2193      H2196   1.079       .  S
C2197      C2198   1.426       .  A
C2197      C2202   1.435       .  A
C2197      C2365   1.497       .  S
C2198      C2199   1.398       .  A
C2198      H2203   1.082       .  S
C2199      C2200   1.388       .  A
C2200      C2201   1.393       .  A
C2200      H2204   1.059       .  S
C2201      C2202   1.402       .  A
C2201      C2210   1.506       .  S
C2202      H2205   1.080       .  S
C2206      C2207   1.424       .  A
C2206      C2211   1.430       .  A
C2206      C2353   1.489       .  S
C2207      C2208   1.396       .  A
C2207      H2212   1.083       .  S
C2208      C2209   1.389       .  A
C2209      C2210   1.397       .  A
C2209      H2213   1.063       .  S
C2210      C2211   1.405       .  A
C2211      H2214   1.080       .  S
C2215      C2216   1.415       .  A
C2215      C2220   1.422       .  A
C2215      C2344   1.484       .  S
C2216      C2217   1.394       .  A
C2216      H2221   1.083       .  S
C2217      C2218   1.396       .  A
C2217      C2226   1.490       .  S
C2218      C2219   1.410       .  A
C2218      H2222   1.075       .  S
C2219      C2220   1.410       .  A
C2219      C2235   1.518       .  S
C2220      H2223   1.083       .  S
C2224      C2225   1.417       .  A
C2224      C2229   1.423       .  A
C2224      C2329   1.500       .  S
C2225      C2226   1.398       .  A
C2225      H2230   1.078       .  S
C2226      C2227   1.401       .  A
C2227      C2228   1.410       .  A
C2227      H2231   1.082       .  S
C2228      C2229   1.412       .  A
C2228      C2244   1.513       .  S
C2229      H2232   1.082       .  S
C2233      C2234   1.424       .  A
C2233      C2238   1.411       .  A
C2233      C2320   1.494       .  S
C2234      C2235   1.418       .  A
C2234      H2239   1.081       .  S
C2235      C2236   1.409       .  A
C2236      C2237   1.401       .  A
C2236      H2240   1.082       .  S
C2237      C2238   1.394       .  A
C2237      C2246   1.481       .  S
C2238      H2241   1.083       .  S
C2242      C2243   1.420       .  A
C2242      C2247   1.410       .  A
C2242      C2305   1.476       .  S
C2243      C2244   1.414       .  A
C2243      H2248   1.083       .  S
C2244      C2245   1.407       .  A
C2245      C2246   1.392       .  A
C2245      H2249   1.076       .  S
C2246      C2247   1.390       .  A
C2247      H2250   1.084       .  S
O2251      C2262   1.295       .  A
O2252      C2263   1.293       .  A
O2253      C2264   1.296       .  A
O2254      C2265   1.297       .  A
O2254     Zr2259   2.457       .  S
O2255      C2265   1.290       .  A
O2256      C2264   1.291       .  A
O2257      C2263   1.293       .  A
O2257     Zr2259   2.441       .  S
O2258      C2262   1.293       .  A
O2260     Zr2286   2.334       .  S
O2260     Zr2289   2.342       .  S
O2261     Zr2288   2.342       .  S
C2262      C2440   1.492       .  S
C2263      C2404   1.481       .  S
C2264      C2332   1.482       .  S
C2265      C2308   1.482       .  S
H2266      O2267   0.965       .  S
O2267     Zr2288   2.331       .  S
H2268      O2269   0.966       .  S
O2269     Zr2289   2.343       .  S
O2270      C2293   1.291       .  A
O2270     Zr2286   2.433       .  S
O2271      C2294   1.295       .  A
O2271     Zr2287   2.448       .  S
O2272      C2295   1.293       .  A
O2272     Zr2288   2.443       .  S
O2273      C2296   1.295       .  A
O2273     Zr2289   2.450       .  S
O2274      C2297   1.293       .  A
O2275      C2298   1.291       .  A
O2276      C2299   1.295       .  A
O2277      C2300   1.296       .  A
O2277     Zr2290   2.449       .  S
O2278      C2299   1.289       .  A
O2278     Zr2288   2.426       .  S
O2279      C2300   1.292       .  A
O2279     Zr2289   2.437       .  S
O2280      C2295   1.289       .  A
O2281      C2298   1.290       .  A
O2282      C2297   1.291       .  A
O2282     Zr2287   2.430       .  S
O2283      C2296   1.289       .  A
O2283     Zr2286   2.422       .  S
O2284      C2293   1.295       .  A
O2284     Zr2290   2.448       .  S
O2285      C2294   1.293       .  A
Zr2286     O2304   2.337       .  S
Zr2288     O2292   2.338       .  S
Zr2288     O2302   2.334       .  S
Zr2289     O2291   2.341       .  S
Zr2289     O2304   2.332       .  S
Zr2290     O2291   2.341       .  S
Zr2290     O2304   2.348       .  S
C2293      C2413   1.485       .  S
C2294      C2425   1.487       .  S
C2295      C2377   1.480       .  S
C2296      C2368   1.488       .  S
C2297      C2356   1.480       .  S
C2298      C2392   1.468       .  S
C2299      C2341   1.469       .  S
C2300      C2317   1.484       .  S
H2301      O2302   0.965       .  S
H2303      O2304   0.965       .  S
C2305      C2306   1.401       .  A
C2305      C2310   1.406       .  A
C2306      C2307   1.395       .  A
C2306      H2311   1.084       .  S
C2307      C2308   1.406       .  A
C2308      C2309   1.409       .  A
C2309      C2310   1.406       .  A
C2309      H2313   1.084       .  S
C2310      O2314   1.371       .  S
O2312      H2316   0.992       .  S
O2314      H2315   0.991       .  S
C2317      C2318   1.400       .  A
C2317      C2322   1.413       .  A
C2318      C2319   1.396       .  A
C2318      H2323   1.084       .  S
C2319      C2320   1.415       .  A
C2319      O2324   1.373       .  S
C2320      C2321   1.407       .  A
C2321      C2322   1.408       .  A
C2321      H2325   1.083       .  S
C2322      O2326   1.372       .  S
O2324      H2328   0.992       .  S
O2326      H2327   0.992       .  S
C2329      C2330   1.408       .  A
C2329      C2334   1.418       .  A
C2330      C2331   1.399       .  A
C2330      H2335   1.083       .  S
C2331      C2332   1.408       .  A
C2331      O2336   1.372       .  S
C2332      C2333   1.402       .  A
C2333      C2334   1.406       .  A
C2333      H2337   1.084       .  S
C2334      O2338   1.373       .  S
O2336      H2340   0.992       .  S
O2338      H2339   0.993       .  S
C2341      C2342   1.401       .  A
C2341      C2346   1.405       .  A
C2342      C2343   1.400       .  A
C2342      H2347   1.084       .  S
C2343      C2344   1.411       .  A
C2343      O2348   1.372       .  S
C2344      C2345   1.406       .  A
C2345      C2346   1.404       .  A
O2348      H2352   0.992       .  S
O2350      H2351   0.991       .  S
C2353      C2354   1.409       .  A
C2353      C2358   1.409       .  A
C2354      C2355   1.395       .  A
C2354      H2359   1.083       .  S
C2355      C2356   1.406       .  A
C2355      O2360   1.372       .  S
C2356      C2357   1.408       .  A
C2357      C2358   1.405       .  A
C2357      H2361   1.084       .  S
C2358      O2362   1.372       .  S
O2360      H2364   0.992       .  S
O2362      H2363   0.992       .  S
C2365      C2366   1.404       .  A
C2365      C2370   1.421       .  A
C2366      C2367   1.398       .  A
C2366      H2371   1.082       .  S
C2367      C2368   1.413       .  A
C2367      O2372   1.368       .  S
C2368      C2369   1.401       .  A
C2369      C2370   1.400       .  A
C2369      H2373   1.084       .  S
C2370      O2374   1.372       .  S
O2372      H2376   0.992       .  S
O2374      H2375   0.992       .  S
C2377      C2378   1.405       .  A
C2377      C2382   1.410       .  A
C2378      C2379   1.404       .  A
C2378      H2383   1.084       .  S
C2379      C2380   1.414       .  A
C2379      O2384   1.373       .  S
C2380      C2381   1.406       .  A
C2381      C2382   1.393       .  A
C2381      H2385   1.083       .  S
C2382      O2386   1.372       .  S
O2384      H2388   0.993       .  S
O2386      H2387   0.992       .  S
C2389      C2390   1.406       .  A
C2389      C2394   1.409       .  A
C2390      C2391   1.393       .  A
C2390      H2395   1.084       .  S
C2391      C2392   1.404       .  A
C2391      O2396   1.373       .  S
C2392      C2393   1.405       .  A
C2393      C2394   1.402       .  A
O2396      H2400   0.992       .  S
O2398      H2399   0.992       .  S
C2401      C2402   1.406       .  A
C2402      C2403   1.392       .  A
C2402      H2407   1.083       .  S
C2403      C2404   1.406       .  A
C2403      O2408   1.368       .  S
C2405      C2406   1.406       .  A
C2405      H2409   1.084       .  S
C2406      O2410   1.372       .  S
O2408      H2412   0.992       .  S
O2410      H2411   0.992       .  S
C2413      C2418   1.414       .  A
C2414      C2415   1.397   1_556  A
C2414      H2419   1.084       .  S
C2415      O2420   1.372   1_554  S
C2416      C2417   1.406       .  A
C2417      C2418   1.403       .  A
C2417      H2421   1.083       .  S
C2418      O2422   1.372       .  S
O2420      H2424   0.992   1_556  S
O2422      H2423   0.992       .  S
C2425      C2426   1.401       .  A
C2426      C2427   1.401       .  A
C2426      H2431   1.084       .  S
C2427      C2428   1.420       .  A
C2427      O2432   1.372       .  S
C2429      C2430   1.403       .  A
C2429      H2433   1.081       .  S
C2430      O2434   1.371       .  S
O2432      H2436   0.992       .  S
O2434      H2435   0.992       .  S
C2437      C2438   1.407       .  A
C2438      C2439   1.402       .  A
C2438      H2443   1.081       .  S
C2439      C2440   1.412       .  A
C2439      O2444   1.369       .  S
C2441      C2442   1.401   1_556  A
C2441      H2445   1.084       .  S
C2442      O2446   1.372   1_554  S
O2444      H2448   0.992       .  S
O2446      H2447   0.992   1_556  S
