geometry optimzed in LAMMPS
_audit_creation_date              2020-11-30 
_audit_creation_method            'lammps2cif' 
_symmetry_space_group_name_H-M    'P1' 
_symmetry_Int_Tables_number       1 
_symmetry_cell_setting            triclinic 
loop_ 
_symmetry_equiv_pos_as_xyz 
  x,y,z 
_cell_length_a                    44.62793349049088 
_cell_length_b                    44.09269548662335 
_cell_length_c                    44.40089289527762 
_cell_angle_alpha                 89.58935513941857 
_cell_angle_beta                  90.04226140427767 
_cell_angle_gamma                 89.47208853759352 
loop_ 
_atom_site_label 
_atom_site_type_symbol 
_atom_site_fract_x 
_atom_site_fract_y 
_atom_site_fract_z 
_atom_site_charge 
C1          C  0.51951072  0.25399764  0.24510879     0.00020
C2          C  0.48900786  0.25481773  0.24180299     0.00020
C3          C  0.52497029  0.74914733  0.26277995     0.00020
C4          C  0.49432180  0.75132028  0.26632856     0.00020
C5          C  0.50484237  0.24305043  0.75099344     0.00020
C6          C  0.47435511  0.24531504  0.75412598     0.00020
C7          C  0.25706070  0.24767193  0.51609488     0.00020
C8          C  0.25291823  0.25315343  0.48583925     0.00020
C9          C  0.25221777  0.99163714  0.75957196     0.00020
C10         C  0.25150825  0.02294521  0.75869974     0.00020
Fe11       Fe  0.36639118  0.13938014  0.81704128     1.65780
Fe12       Fe  0.36362602  0.19320344  0.87312654     1.73250
Fe13       Fe  0.30934147  0.13798027  0.86998531     1.54410
O14         O  0.29126668  0.13411862  0.82780004    -0.82220
O15         O  0.35936624  0.17402980  0.91523259    -0.80520
O16         O  0.32735166  0.13853172  0.79361558    -0.84720
O17         O  0.35989273  0.09440303  0.83026466    -0.79580
O18         O  0.28732697  0.17852252  0.87204002    -0.81350
O19         O  0.40785039  0.17794863  0.86903000    -0.84100
C20         C  0.33503516  0.08525853  0.84081555     0.96670
C21         C  0.30011469  0.13598967  0.80071792     1.04110
O22         O  0.34662653  0.15661401  0.85359717    -1.13080
O23         O  0.36648297  0.21628645  0.83359537    -0.75510
O24         O  0.37232918  0.18158032  0.79799132    -0.79000
O25         O  0.32733455  0.09486139  0.86662933    -0.79690
C26         C  0.37008057  0.20892426  0.80648289     0.95570
O27         O  0.40793787  0.14091754  0.83701478    -0.77640
O28         O  0.32240430  0.21365002  0.87620036    -0.82840
C29         C  0.33346189  0.16724234  0.92471825     0.98200
C30         C  0.29527393  0.20586177  0.87384546     1.04110
O31         O  0.32191842  0.14283416  0.91510194    -0.78480
C32         C  0.41785784  0.16658221  0.84474637     1.02410
Fe33       Fe  0.13683938  0.37145710  0.81114791     1.65780
Fe34       Fe  0.13910654  0.31420468  0.86524225     1.73250
Fe35       Fe  0.19242862  0.36968477  0.86547917     1.54420
O36         O  0.21208564  0.37431351  0.82373563    -0.82220
O37         O  0.14437147  0.32829795  0.90935293    -0.80520
O38         O  0.17633636  0.37427879  0.78890061    -0.84720
O39         O  0.14261044  0.41587930  0.82630821    -0.79580
O40         O  0.21506993  0.32923219  0.86739446    -0.81350
O41         O  0.09571691  0.33113978  0.86291549    -0.84100
C42         C  0.16673046  0.42377328  0.83935913     0.96670
C43         C  0.20356243  0.37340176  0.79651886     1.04110
O44         O  0.15592434  0.35190763  0.84750730    -1.13080
O45         O  0.13504306  0.29446167  0.82420936    -0.75510
O46         O  0.13322575  0.33102713  0.78944119    -0.79000
O47         O  0.17260549  0.41160541  0.86436669    -0.79690
C48         C  0.13448686  0.30345786  0.79717937     0.95570
O49         O  0.09386658  0.36683733  0.82860003    -0.77640
O50         O  0.18020118  0.29352029  0.86672825    -0.82840
C51         C  0.16926860  0.33842606  0.91860072     0.98200
C52         C  0.20733530  0.30171458  0.86733252     1.04110
O53         O  0.17737104  0.36416721  0.90905683    -0.78480
C54         C  0.08472384  0.34129858  0.83836084     1.02410
Fe55       Fe  0.36029632  0.31139736  0.64459730     1.65780
Fe56       Fe  0.31392505  0.37097719  0.63830394     1.73250
Fe57       Fe  0.35908439  0.36643966  0.69919132     1.54410
O58         O  0.36089325  0.32602680  0.72051659    -0.82220
O59         O  0.31041085  0.40631549  0.66679806    -0.80520
O60         O  0.36253255  0.29034629  0.68592888    -0.84720
O61         O  0.40366442  0.32700595  0.64949087    -0.79580
O62         O  0.31540861  0.36793012  0.71369568    -0.81350
O63         O  0.31097116  0.34159256  0.60352636    -0.84100
C64         C  0.41319755  0.33468839  0.67548704     0.96670
C65         C  0.36156124  0.29867640  0.71302698     1.04110
O66         O  0.34636148  0.35063714  0.65975751    -1.13080
O67         O  0.28562192  0.33445462  0.65213750    -0.75510
O68         O  0.31726993  0.29544642  0.64248817    -0.79000
O69         O  0.40421239  0.36002725  0.68680646    -0.79690
C70         C  0.29101657  0.30570901  0.64766652     0.95570
O71         O  0.35682568  0.32406567  0.59930458    -0.77640
O72         O  0.28568411  0.35603576  0.67408394    -0.82840
C73         C  0.32751371  0.42093616  0.68386242     0.98200
C74         C  0.29010112  0.36056388  0.70268931     1.04110
O75         O  0.35470834  0.41205094  0.68673019    -0.78480
C76         C  0.33011172  0.32625613  0.58928522     1.02410
Fe77       Fe  0.19366184  0.14555375  0.64260515     1.65780
Fe78       Fe  0.14090017  0.14369952  0.69878289     1.73250
Fe79       Fe  0.13395658  0.19263961  0.64134193     1.54420
O80         O  0.17011220  0.22088992  0.65367286    -0.82220
O81         O  0.09543615  0.14973416  0.68790128    -0.80520
O82         O  0.20788637  0.18982449  0.63905622    -0.84720
O83         O  0.17889564  0.14908272  0.59787637    -0.79580
O84         O  0.15114481  0.21940915  0.67761513    -0.81350
O85         O  0.14545614  0.09934883  0.68346125    -0.84100
C86         C  0.17524828  0.17632118  0.58837350     0.96670
C87         C  0.19789178  0.21605960  0.64616291     1.04110
O88         O  0.15511111  0.15855222  0.65974809    -1.13080
O89         O  0.18167740  0.13921876  0.71774338    -0.75510
O90         O  0.21614624  0.14418366  0.68270660    -0.79000
O91         O  0.16060096  0.19494083  0.60416063    -0.79690
C92         C  0.20855218  0.14114114  0.70988584     0.95570
O93         O  0.18181523  0.09986801  0.64932681    -0.77640
O94         O  0.14129454  0.18677221  0.71591426    -0.82840
C95         C  0.08631341  0.17730405  0.68736635     0.98200
C96         C  0.14753004  0.21325038  0.70611352     1.04110
O97         O  0.10097637  0.19674347  0.67271664    -0.78480
C98         C  0.17106327  0.08952759  0.67419890     1.02410
C99         C  0.01634478  0.25576346  0.76448008     0.00020
C100        C  0.98573918  0.25776477  0.76172331     0.00020
C101        C  0.25153632  0.49246417  0.76480212     0.00020
C102        C  0.25274801  0.52354826  0.76366259     0.00020
C103        C  0.73909912  0.49210722  0.25590663     0.00020
C104        C  0.74027090  0.52340706  0.25651004     0.00020
C105        C  0.76126440  0.25701522  0.02739758     0.00020
C106        C  0.76348780  0.25338638  0.99683037     0.00020
Fe107      Fe  0.86618535  0.31503720  0.14617993     1.65780
Fe108      Fe  0.80591745  0.36539345  0.14706076     1.73250
Fe109      Fe  0.85813929  0.36743107  0.20352213     1.54420
O110        O  0.86641235  0.32559944  0.22211264    -0.82220
O111        O  0.81399913  0.41105899  0.15579201    -0.80520
O112        O  0.86991688  0.29144258  0.18588000    -0.84720
O113        O  0.90765802  0.33520096  0.15307180    -0.79580
O114        O  0.81714825  0.36439420  0.22348403    -0.81350
O115        O  0.82544323  0.36715496  0.10513194    -0.84100
C116        C  0.91449582  0.34644023  0.17846799     0.96670
C117        C  0.86839213  0.29841263  0.21339676     1.04110
O118        O  0.84363798  0.34967787  0.16537231    -1.13080
O119        O  0.79070954  0.32225986  0.14066380    -0.75510
O120        O  0.82863838  0.28945537  0.14089729    -0.79000
O121        O  0.90092106  0.37039208  0.18648214    -0.79690
C122        C  0.80094026  0.29543240  0.14156893     0.95570
O123        O  0.86134296  0.33348235  0.10305833    -0.77640
O124        O  0.78345688  0.36315138  0.18633818    -0.82840
C125        C  0.82318999  0.42080020  0.18111410     0.98200
C126        C  0.79054275  0.36260038  0.21384562     1.04110
O127        O  0.84850977  0.41172878  0.19090767    -0.78480
C128        C  0.83591416  0.34298650  0.09377468     1.02410
Fe129      Fe  0.80686359  0.14308529  0.36968113     1.65780
Fe130      Fe  0.86844233  0.13751963  0.32687769     1.73250
Fe131      Fe  0.85946424  0.19880552  0.37123526     1.54420
O132        O  0.81813910  0.21871711  0.37131900    -0.82220
O133        O  0.90268823  0.16789533  0.32415790    -0.80520
O134        O  0.78415940  0.18292290  0.36828945    -0.84720
O135        O  0.81659186  0.15120229  0.41512102    -0.79580
O136        O  0.86267700  0.21361197  0.32763525    -0.81350
O137        O  0.83984042  0.10105212  0.32386415    -0.84100
C138        C  0.82789029  0.17561708  0.42589337     0.96670
C139        C  0.79133079  0.21034065  0.36929750     1.04110
O140        O  0.84596357  0.15896965  0.35801150    -1.13080
O141        O  0.83456569  0.15156937  0.29638869    -0.75510
O142        O  0.79417212  0.13918838  0.32478218    -0.79000
O143        O  0.85280947  0.18591965  0.41585851    -0.79690
C144        C  0.80608826  0.14680386  0.29966724     0.95570
O145        O  0.82258160  0.09880980  0.36998005    -0.77640
O146        O  0.85562309  0.17375620  0.29662691    -0.82840
C147        C  0.91549667  0.18468368  0.34304529     0.98200
C148        C  0.85870388  0.20273037  0.30144281     1.04110
O149        O  0.90477214  0.18709966  0.36957055    -0.78480
C150        C  0.82463695  0.08747031  0.34380629     1.02410
Fe151      Fe  0.68746540  0.36919379  0.36958238     1.65780
Fe152      Fe  0.63302036  0.36866449  0.31465461     1.73250
Fe153      Fe  0.63162924  0.31870384  0.37221609     1.54420
O154        O  0.66958087  0.29351159  0.35669057    -0.82220
O155        O  0.58887533  0.36183078  0.32766606    -0.80520
O156        O  0.70574257  0.32642707  0.36982082    -0.84720
O157        O  0.67511994  0.36226151  0.41470216    -0.79580
O158        O  0.64844471  0.29383727  0.33490371    -0.81350
O159        O  0.63625145  0.41333215  0.32986244    -0.84100
C160        C  0.67504949  0.33447226  0.42331118     0.96670
C161        C  0.69742596  0.29995145  0.36237272     1.04110
O162        O  0.64948214  0.35417860  0.35339800    -1.13080
O163        O  0.67265554  0.37330686  0.29405418    -0.75510
O164        O  0.70788772  0.37342853  0.32895102    -0.79000
O165        O  0.66108180  0.31513814  0.40793481    -0.79690
C166        C  0.69958347  0.37318674  0.30187600     0.95570
O167        O  0.67103060  0.41357684  0.36539316    -0.77640
O168        O  0.63422901  0.32538367  0.29686684    -0.82840
C169        C  0.58157746  0.33394677  0.32722028     0.98200
C170        C  0.64341605  0.29963757  0.30654159     1.04110
O171        O  0.59699911  0.31476994  0.34199598    -0.78480
C172        C  0.66123673  0.42348990  0.33992509     1.02410
Fe173      Fe  0.64707378  0.13861377  0.20350777     1.65780
Fe174      Fe  0.64756975  0.19413360  0.14868103     1.73250
Fe175      Fe  0.69350706  0.13336887  0.14503594     1.54410
O176        O  0.72084427  0.14880495  0.18052603    -0.82220
O177        O  0.65346854  0.18312048  0.10309224    -0.80520
O178        O  0.69076755  0.13714208  0.22006995    -0.84720
O179        O  0.65075538  0.09326723  0.19084233    -0.79580
O180        O  0.72158222  0.17025526  0.15846344    -0.81350
O181        O  0.60379004  0.17920535  0.15179046    -0.84100
C182        C  0.67775004  0.08373995  0.18970697     0.96670
C183        C  0.71606184  0.14513539  0.20916637     1.04110
O184        O  0.66079403  0.15455043  0.16458782    -1.13080
O185        O  0.64343405  0.21478077  0.18985185    -0.75510
O186        O  0.64448598  0.17896527  0.22461517    -0.79000
O187        O  0.69668513  0.09882962  0.17512986    -0.79690
C188        C  0.64387403  0.20639204  0.21709149     0.95570
O189        O  0.60267457  0.14459326  0.18901983    -0.77640
O190        O  0.69042321  0.20992485  0.14839294    -0.82840
C191        C  0.68058702  0.17919367  0.09470406     0.98200
C192        C  0.71636656  0.19915428  0.15433075     1.04110
O193        O  0.69740934  0.16212755  0.11007529    -0.78480
C194        C  0.59208490  0.16864384  0.17603663     1.02410
C195        C  0.74132378  0.01197726  0.27906397     0.00020
C196        C  0.74214131  0.98107049  0.27608764     0.00020
C197        C  0.74986096  0.25509100  0.49795148     0.00020
C198        C  0.74946422  0.25308285  0.52897746     0.00020
C199        C  0.73964313  0.74801497  0.98285935     0.00020
C200        C  0.73965855  0.74765662  0.01385176     0.00020
Fe201      Fe  0.80386402  0.64754827  0.14802818     1.65780
Fe202      Fe  0.86556540  0.68982562  0.14244143     1.73250
Fe203      Fe  0.85835185  0.64397743  0.20319268     1.54420
O204        O  0.81766599  0.64187196  0.22322489    -0.82220
O205        O  0.90001582  0.69268459  0.17225099    -0.80520
O206        O  0.78278495  0.64610732  0.18844895    -0.84720
O207        O  0.81575759  0.60169464  0.15394029    -0.79580
O208        O  0.86012869  0.68754929  0.21883847    -0.81350
O209        O  0.83625241  0.69501564  0.10736860    -0.84100
C210        C  0.82585560  0.59066039  0.17899173     0.96670
C211        C  0.79060067  0.64354040  0.21549405     1.04110
O212        O  0.84362170  0.65837996  0.16363171    -1.13080
O213        O  0.83166471  0.72050747  0.15667833    -0.75510
O214        O  0.79027927  0.69280017  0.14652931    -0.79000
O215        O  0.85156109  0.59921160  0.18903017    -0.79690
C216        C  0.80286944  0.71771950  0.15359041     0.95570
O217        O  0.81618805  0.65040039  0.10259546    -0.77640
O218        O  0.85309411  0.71891423  0.17848392    -0.82840
C219        C  0.91405469  0.67491358  0.18960007     0.98200
C220        C  0.85559014  0.71372736  0.20728377     1.04110
O221        O  0.90444029  0.64779458  0.19304142    -0.78480
C222        C  0.81960066  0.67739190  0.09281219     1.02410
Fe223      Fe  0.80986073  0.86267820  0.36898103     1.67970
Fe224      Fe  0.86408023  0.80706481  0.36910180     1.73250
Fe225      Fe  0.86746328  0.86590944  0.31676772     1.54410
O226        O  0.82837733  0.86962672  0.29315490    -0.82220
O227        O  0.90659409  0.82498062  0.36958159    -0.80520
O228        O  0.79159459  0.86879061  0.32687704    -0.84720
O229        O  0.82802362  0.90528400  0.36932109    -0.79580
O230        O  0.87240756  0.82680163  0.29383843    -0.81350
O231        O  0.85658539  0.81938514  0.41360262    -0.84100
C232        C  0.83587498  0.91739206  0.34472019     0.96670
C233        C  0.80092529  0.86945413  0.29988076     1.04110
O234        O  0.84729576  0.84534017  0.35186742    -1.13080
O235        O  0.82360430  0.78584299  0.36906303    -0.75510
O236        O  0.78847281  0.82197275  0.36952505    -0.79000
O237        O  0.86106208  0.90943570  0.33377949    -0.79690
C238        C  0.79645953  0.79433482  0.36977404     0.95570
O239        O  0.82312809  0.85578210  0.41301771    -0.77640
O240        O  0.87032227  0.78885454  0.32702441    -0.82840
C241        C  0.91868037  0.83438342  0.34545048     0.98200
C242        C  0.87170395  0.79899332  0.30026274     1.04110
O243        O  0.91023706  0.86011116  0.33509157    -0.78480
C244        C  0.83163720  0.82997679  0.42273298     1.02410
Fe245      Fe  0.64256591  0.80920243  0.15070151     1.65780
Fe246      Fe  0.63793734  0.86526246  0.20335741     1.73250
Fe247      Fe  0.68574128  0.87017116  0.14422399     1.54420
O248        O  0.71499138  0.83661013  0.16164666    -0.82220
O249        O  0.64131745  0.91019609  0.18909711    -0.80520
O250        O  0.68736440  0.79523103  0.15035075    -0.84720
O251        O  0.64503092  0.82270010  0.10592698    -0.79580
O252        O  0.71331222  0.85900774  0.18257042    -0.81350
O253        O  0.59436318  0.85863629  0.18795704    -0.84100
C254        C  0.67160717  0.82368823  0.09582746     0.96670
C255        C  0.71198304  0.80759371  0.15825699     1.04110
O256        O  0.65354916  0.84917314  0.16528228    -1.13080
O257        O  0.63522034  0.82478406  0.22550936    -0.75510
O258        O  0.64103187  0.78884397  0.19174840    -0.79000
O259        O  0.69101457  0.83890562  0.10982528    -0.79690
C260        C  0.63772882  0.79727674  0.21855467     0.95570
O261        O  0.59732337  0.82126092  0.15476125    -0.77640
O262        O  0.68058119  0.86811460  0.22039824    -0.82840
C263        C  0.66797720  0.92031952  0.18818919     0.98200
C264        C  0.70718246  0.86377480  0.21092824     1.04110
O265        O  0.68725072  0.90658043  0.17241561    -0.78480
C266        C  0.58605915  0.83240967  0.17892595     1.02410
Fe267      Fe  0.63576659  0.63576125  0.32397330     1.65780
Fe268      Fe  0.69193491  0.63765850  0.37786507     1.73250
Fe269      Fe  0.63564649  0.69210476  0.37785172     1.54420
O270        O  0.63204961  0.71234636  0.33638977    -0.82220
O271        O  0.67665808  0.64225291  0.42182734    -0.80520
O272        O  0.63180528  0.67625834  0.30168245    -0.84720
O273        O  0.59248888  0.64037053  0.34051910    -0.79580
O274        O  0.67547937  0.71430382  0.38080548    -0.81350
O275        O  0.67779009  0.59297370  0.37433594    -0.84100
C276        C  0.58328422  0.66609047  0.34953001     0.96670
C277        C  0.63155490  0.70387488  0.30918707     1.04110
O278        O  0.65422933  0.65493730  0.36013096    -1.13080
O279        O  0.71187897  0.63453944  0.33690532    -0.75510
O280        O  0.67603418  0.63181068  0.30237159    -0.79000
O281        O  0.59288374  0.67491879  0.37477385    -0.79690
C282        C  0.70337079  0.63302542  0.30985468     0.95570
O283        O  0.64076091  0.59291679  0.34255590    -0.77640
O284        O  0.71140000  0.67918576  0.37984254    -0.82840
C285        C  0.66600775  0.66746498  0.43090016     0.98200
C286        C  0.70278057  0.70658299  0.38010754     1.04110
O287        O  0.64034443  0.67546151  0.42125903    -0.78480
C288        C  0.66679984  0.58344236  0.34975394     1.02410
C289        C  0.74555540  0.75487845  0.48934383     0.00020
C290        C  0.74352457  0.75786704  0.52011764     0.00020
C291        C  0.74644181  0.98355889  0.76047109     0.00020
C292        C  0.74662122  0.01479250  0.76063760     0.00020
Fe293      Fe  0.64355176  0.15222214  0.81431125     1.65780
Fe294      Fe  0.69730455  0.15058479  0.86972769     1.73250
Fe295      Fe  0.63521743  0.19457728  0.87559883     1.54420
O296        O  0.64789151  0.22572698  0.84161439    -0.82220
O297        O  0.68514284  0.15421018  0.91534883    -0.80520
O298        O  0.63926874  0.19724974  0.80022703    -0.84720
O299        O  0.59875145  0.15186017  0.82679739    -0.79580
O300        O  0.67020298  0.22435983  0.86208021    -0.81350
O301        O  0.68575669  0.10496106  0.86224257    -0.84100
C302        C  0.58681417  0.17787050  0.82999434     0.96670
C303        C  0.64400674  0.22275867  0.81280730     1.04110
O304        O  0.65782888  0.16368733  0.85417884    -1.13080
O305        O  0.71874757  0.14864712  0.82974396    -0.75510
O306        O  0.68464570  0.15308424  0.79418099    -0.79000
O307        O  0.59980976  0.19729305  0.84602888    -0.79690
C308        C  0.71154019  0.15109509  0.80252337     0.95570
O309        O  0.65009609  0.10710407  0.82663304    -0.77640
O310        O  0.71142229  0.19504665  0.87130237    -0.82840
C311        C  0.68139098  0.18140533  0.92467718     0.98200
C312        C  0.69905789  0.22039722  0.86443508     1.04110
O313        O  0.66462903  0.19909473  0.90998611    -0.78480
C314        C  0.67409291  0.09516155  0.83747243     1.02410
Fe315      Fe  0.85663474  0.31649117  0.86463661     1.65780
Fe316      Fe  0.84621792  0.36208985  0.80365068     1.73250
Fe317      Fe  0.81141253  0.37698129  0.86911566     1.54420
O318        O  0.78276551  0.34041706  0.85947370    -0.82220
O319        O  0.84988528  0.40893988  0.80947338    -0.80520
O320        O  0.81342245  0.29995107  0.86891137    -0.84720
O321        O  0.85470446  0.33360432  0.90812234    -0.79580
O322        O  0.77641898  0.36325530  0.83908352    -0.81350
O323        O  0.89187850  0.35225141  0.80868259    -0.84100
C324        C  0.82855061  0.33487891  0.91940028     0.96670
C325        C  0.78764357  0.31156321  0.86301800     1.04110
O326        O  0.84037507  0.35343670  0.84638791    -1.13080
O327        O  0.83875354  0.31796107  0.79080418    -0.75510
O328        O  0.86010605  0.29089603  0.82689631    -0.79000
O329        O  0.80825484  0.34931171  0.90562165    -0.79690
C330        C  0.84789193  0.29291867  0.80147675     0.95570
O331        O  0.89936513  0.33203417  0.85512973    -0.77640
O332        O  0.80146005  0.36916759  0.79531762    -0.82840
C333        C  0.82541124  0.42194155  0.81722726     0.98200
C334        C  0.77719572  0.36553992  0.80983794     1.04110
O335        O  0.80955585  0.41039640  0.83776646    -0.78480
C336        C  0.90822604  0.33806923  0.82813610     1.02410
Fe337      Fe  0.80988931  0.13932964  0.64565135     1.65780
Fe338      Fe  0.86254002  0.19638939  0.64738626     1.73250
Fe339      Fe  0.87034306  0.13504820  0.69165798     1.54420
O340        O  0.83329703  0.14758396  0.71950094    -0.82220
O341        O  0.90826756  0.18655841  0.65246484    -0.80520
O342        O  0.79365084  0.13853729  0.68882112    -0.84720
O343        O  0.82129027  0.09327750  0.65191359    -0.79580
O344        O  0.85452842  0.16959616  0.72042696    -0.81350
O345        O  0.85914687  0.18168040  0.60281449    -0.84100
C346        C  0.82495990  0.08482576  0.67932025     0.96670
C347        C  0.80466752  0.14499955  0.71447343     1.04110
O348        O  0.84856174  0.15592077  0.65968816    -1.13080
O349        O  0.82130004  0.21587548  0.64386722    -0.75510
O350        O  0.78791372  0.17970600  0.64131983    -0.79000
O351        O  0.84280816  0.09939588  0.69544306    -0.79690
C352        C  0.79459296  0.20726883  0.64209027     0.95570
O353        O  0.82517261  0.14504501  0.60133629    -0.77640
O354        O  0.86182774  0.21165383  0.69143188    -0.82840
C355        C  0.91737521  0.18317823  0.67953835     0.98200
C356        C  0.85606335  0.19877435  0.71659268     1.04110
O357        O  0.90344892  0.16587915  0.69713164    -0.78480
C358        C  0.83445500  0.17121859  0.59229581     1.02410
Fe359      Fe  0.63457161  0.31009648  0.65129699     1.65780
Fe360      Fe  0.62487042  0.37412043  0.69120595     1.73250
Fe361      Fe  0.68657571  0.36704275  0.64870181     1.54410
O362        O  0.70957083  0.32707510  0.65041890    -0.82220
O363        O  0.65234527  0.41089295  0.69212488    -0.80520
O364        O  0.67609410  0.29079382  0.64949166    -0.84720
O365        O  0.63994168  0.32165889  0.60592089    -0.79580
O366        O  0.70005676  0.37319855  0.69327882    -0.81350
O367        O  0.59226541  0.34304170  0.69739656    -0.84100
C368        C  0.66509065  0.33142787  0.59564271     0.96670
C369        C  0.70286587  0.29951011  0.64918882     1.04110
O370        O  0.64782219  0.35103696  0.66180661    -1.13080
O371        O  0.63951940  0.34077022  0.72298459    -0.75510
O372        O  0.63402031  0.29732399  0.69623214    -0.79000
O373        O  0.67509096  0.35729337  0.60406899    -0.79690
C374        C  0.63920591  0.31136495  0.72074111     0.95570
O375        O  0.58859205  0.32049233  0.65398120    -0.77640
O376        O  0.65935579  0.36411477  0.72255356    -0.82840
C377        C  0.66784944  0.42386355  0.67220895     0.98200
C378        C  0.68796151  0.36780842  0.71890475     1.04110
O379        O  0.67122388  0.41149435  0.64668790    -0.78480
C380        C  0.57851027  0.32521372  0.68044160     1.02410
C381        C  0.74321651  0.49661914  0.74674404     0.00020
C382        C  0.73891175  0.52691571  0.75293252     0.00020
Fe383      Fe  0.80504529  0.64121941  0.86405233     1.65780
Fe384      Fe  0.86501855  0.63897445  0.81804856     1.73250
Fe385      Fe  0.85774208  0.69787759  0.86429757     1.54410
O386        O  0.81678738  0.71765765  0.86708689    -0.82220
O387        O  0.89817139  0.67012346  0.81475095    -0.80520
O388        O  0.78293008  0.68159804  0.86789636    -0.84720
O389        O  0.81963127  0.64583449  0.90850262    -0.79580
O390        O  0.85819444  0.71437655  0.82027534    -0.81350
O391        O  0.83786256  0.60293374  0.81382787    -0.84100
C392        C  0.82816250  0.67163243  0.91861239     0.96670
C393        C  0.79007038  0.70913751  0.86859672     1.04110
O394        O  0.84339051  0.65833641  0.85066717    -1.13080
O395        O  0.82800356  0.65130500  0.78959479    -0.75510
O396        O  0.78900919  0.64020248  0.82053402    -0.79000
O397        O  0.85283579  0.68303799  0.90901779    -0.79690
C398        C  0.79967729  0.64621210  0.79452132     0.95570
O399        O  0.81898500  0.59612381  0.85883295    -0.77640
O400        O  0.84829938  0.67424177  0.79016805    -0.82840
C401        C  0.91299293  0.68463494  0.83380397     0.98200
C402        C  0.85107839  0.70313373  0.79477077     1.04110
O403        O  0.90325087  0.68633262  0.86072821    -0.78480
C404        C  0.82224575  0.58748353  0.83162265     1.02410
Fe405      Fe  0.85861216  0.86525437  0.70037142     1.65780
Fe406      Fe  0.86931084  0.82003685  0.64092939     1.73250
Fe407      Fe  0.80592219  0.86239591  0.64421970     1.54420
O408        O  0.78394090  0.86202499  0.68481652    -0.82220
O409        O  0.84200528  0.81586536  0.60418615    -0.80520
O410        O  0.81788757  0.86668244  0.72033974    -0.84720
O411        O  0.85102877  0.90988304  0.68589420    -0.79580
O412        O  0.79405061  0.81795473  0.64108597    -0.81350
O413        O  0.90259009  0.81736113  0.67288412    -0.84100
C414        C  0.82533516  0.91857162  0.67562355     0.96670
C415        C  0.79109209  0.86457741  0.71215146     1.04110
O416        O  0.84533303  0.85122902  0.66077883    -1.13080
O417        O  0.85465836  0.79060691  0.67560822    -0.75510
O418        O  0.86141624  0.82061139  0.71638648    -0.79000
O419        O  0.81583010  0.90818294  0.65046252    -0.79690
C420        C  0.85617579  0.79477280  0.70449790     0.95570
O421        O  0.90361051  0.86410918  0.68833892    -0.77640
O422        O  0.83468890  0.78882776  0.65266695    -0.82840
C423        C  0.82459493  0.83330678  0.58959307     0.98200
C424        C  0.80607997  0.79253021  0.64792418     1.04110
O425        O  0.81982414  0.86015884  0.59927711    -0.78480
C426        C  0.91491372  0.83757540  0.68852138     1.02410
Fe427      Fe  0.62991098  0.86746428  0.81615658     1.65780
Fe428      Fe  0.62950709  0.81398767  0.87444612     1.73250
Fe429      Fe  0.68556668  0.86764018  0.86964908     1.54420
O430        O  0.70505332  0.87007129  0.82816424    -0.82220
O431        O  0.63510434  0.83248571  0.91680584    -0.80520
O432        O  0.66963879  0.86948859  0.79329327    -0.84720
O433        O  0.63558975  0.91225813  0.82941233    -0.79580
O434        O  0.70545200  0.82607659  0.87211392    -0.81350
O435        O  0.58600517  0.83064035  0.86914418    -0.84100
C436        C  0.66026506  0.92193778  0.83996979     0.96670
C437        C  0.69687582  0.87000143  0.80090652     1.04110
O438        O  0.64797561  0.85005481  0.85373900    -1.13080
O439        O  0.62548692  0.79098864  0.83542989    -0.75510
O440        O  0.62634055  0.82540380  0.79822736    -0.79000
O441        O  0.66926820  0.91156435  0.86527214    -0.79690
C442        C  0.62664671  0.79840625  0.80798536     0.95570
O443        O  0.58707501  0.86490545  0.83382599    -0.77640
O444        O  0.66975764  0.79171707  0.87850992    -0.82840
C445        C  0.66137703  0.83994401  0.92488245     0.98200
C446        C  0.69690068  0.79895440  0.87504401     1.04110
O447        O  0.67161883  0.86452260  0.91418465    -0.78480
C448        C  0.57702421  0.83971836  0.84337875     1.02410
Fe449      Fe  0.68995343  0.64270772  0.64112634     1.65780
Fe450      Fe  0.63693124  0.64259203  0.69894635     1.73250
Fe451      Fe  0.64104669  0.70299740  0.65035870     1.54420
O452        O  0.68368133  0.71936058  0.64701984    -0.82220
O453        O  0.59266403  0.65421467  0.68782701    -0.80520
O454        O  0.71524308  0.68094332  0.63965572    -0.84720
O455        O  0.67239456  0.65341739  0.59919845    -0.79580
O456        O  0.64065371  0.71907961  0.69365656    -0.81350
O457        O  0.63565079  0.60179077  0.67644605    -0.84100
C458        C  0.66394174  0.68009648  0.59175943     0.96670
C459        C  0.70995238  0.70875406  0.64380714     1.04110
O460        O  0.65559390  0.66262600  0.66315404    -1.13080
O461        O  0.67875834  0.63470053  0.71681125    -0.75510
O462        O  0.71286373  0.63381333  0.68028298    -0.79000
O463        O  0.64160767  0.69202873  0.60509732    -0.79690
C464        C  0.70569855  0.63437109  0.70783993     0.95570
O465        O  0.66957996  0.60066158  0.64193172    -0.77640
O466        O  0.63738548  0.67971241  0.72511743    -0.82840
C467        C  0.58441120  0.68040349  0.67823470     0.98200
C468        C  0.63887418  0.70769041  0.71989339     1.04110
O469        O  0.59642059  0.69109870  0.65447724    -0.78480
C470        C  0.65998538  0.59046937  0.66679094     1.02410
C471        C  0.48226395  0.76053296  0.75799582     0.00020
C472        C  0.51321064  0.76009460  0.75794689     0.00020
Fe473      Fe  0.14037869  0.69746256  0.86716281     1.65780
Fe474      Fe  0.13619488  0.64383519  0.81109224     1.73250
Fe475      Fe  0.19325386  0.64045208  0.86442193     1.54410
O476        O  0.21642447  0.68012802  0.86672272    -0.82220
O477        O  0.14088470  0.59878622  0.82522061    -0.80520
O478        O  0.18189861  0.71656537  0.87041782    -0.84720
O479        O  0.14429614  0.67820695  0.90930813    -0.79580
O480        O  0.21195660  0.63622041  0.82243378    -0.81350
O481        O  0.09333432  0.64908189  0.82874195    -0.84100
C482        C  0.16988796  0.67004057  0.91870391     0.96670
C483        C  0.20899296  0.70773772  0.86920800     1.04110
O484        O  0.15647609  0.66047120  0.84770312    -1.13080
O485        O  0.13233421  0.68526792  0.79117185    -0.75510
O486        O  0.13728809  0.72028720  0.82663411    -0.79000
O487        O  0.18037558  0.64509087  0.90911874    -0.79690
C488        C  0.13533754  0.71244760  0.79929012     0.95570
O489        O  0.09710400  0.68191186  0.86473984    -0.77640
O490        O  0.17568619  0.64141154  0.78827563    -0.82840
C491        C  0.16488915  0.58836352  0.83705809     0.98200
C492        C  0.20302241  0.63990315  0.79555396     1.04110
O493        O  0.17319618  0.59890805  0.86212463    -0.78480
C494        C  0.08555909  0.67448185  0.83988050     1.02410
Fe495      Fe  0.19536581  0.86861193  0.64666399     1.65780
Fe496      Fe  0.13550378  0.82378491  0.64034029     1.73250
Fe497      Fe  0.13972184  0.86960193  0.70015356     1.54410
O498        O  0.17930983  0.87107823  0.72196312    -0.82220
O499        O  0.10058421  0.82027512  0.66946943    -0.80520
O500        O  0.21515234  0.86836279  0.68781961    -0.84720
O501        O  0.18311327  0.91403175  0.65312835    -0.79580
O502        O  0.13781254  0.82538802  0.71564834    -0.81350
O503        O  0.16477004  0.82140874  0.60547384    -0.84100
C504        C  0.17212335  0.92395773  0.67799581     0.96670
C505        C  0.20644091  0.86933317  0.71471762     1.04110
O506        O  0.15591198  0.85613115  0.66131084    -1.13080
O507        O  0.17093635  0.79340721  0.65412592    -0.75510
O508        O  0.20968135  0.82422115  0.64382304    -0.79000
O509        O  0.14632881  0.91468861  0.68690340    -0.79690
C510        C  0.19941355  0.79795569  0.64950173     0.95570
O511        O  0.18354384  0.86683151  0.60113646    -0.77640
O512        O  0.14982851  0.79502940  0.67623467    -0.82840
C513        C  0.08566219  0.83950933  0.68420148     0.98200
C514        C  0.14506212  0.79962793  0.70473456     1.04110
O515        O  0.09518349  0.86663665  0.68610733    -0.78480
C516        C  0.18064270  0.83994481  0.59111774     1.02410
Fe517      Fe  0.36522945  0.81535022  0.87302114     1.65780
Fe518      Fe  0.36264197  0.87143838  0.81803595     1.73250
Fe519      Fe  0.30903171  0.87026041  0.87418424     1.54410
O520        O  0.28980296  0.82856213  0.87725037    -0.82220
O521        O  0.35833263  0.91488730  0.83511929    -0.80520
O522        O  0.32537306  0.79310561  0.87635745    -0.84720
O523        O  0.36110238  0.83119979  0.91679352    -0.79580
O524        O  0.28696865  0.87317705  0.83462274    -0.81350
O525        O  0.40693237  0.86641432  0.83216186    -0.84100
C526        C  0.33573733  0.84011191  0.92642036     0.96670
C527        C  0.29808391  0.80110478  0.87627145     1.04110
O528        O  0.34601944  0.85272956  0.85539706    -1.13080
O529        O  0.36547088  0.83071048  0.79667707    -0.75510
O530        O  0.36858242  0.79493317  0.83224292    -0.79000
O531        O  0.32643394  0.86595050  0.91730612    -0.79690
C532        C  0.36692262  0.80323963  0.80503420     0.95570
O533        O  0.40799385  0.83250042  0.86795409    -0.77640
O534        O  0.32137826  0.87547228  0.79856818    -0.82840
C535        C  0.33300550  0.92519277  0.84372689     0.98200
C536        C  0.29444275  0.87435839  0.80735637     1.04110
O537        O  0.32247910  0.91526972  0.86861318    -0.78480
C538        C  0.41694554  0.84111956  0.84212056     1.02410
Fe539      Fe  0.31657264  0.63950114  0.63918618     1.65780
Fe540      Fe  0.35942386  0.70124493  0.64512418     1.73250
Fe541      Fe  0.36142610  0.64681490  0.70009686     1.54420
O542        O  0.31797520  0.64455575  0.71519293    -0.82220
O543        O  0.40478215  0.69129867  0.65342839    -0.80520
O544        O  0.28743323  0.65287534  0.67496555    -0.84720
O545        O  0.31327932  0.60445445  0.66954553    -0.79580
O546        O  0.36298109  0.68792928  0.72031141    -0.81350
O547        O  0.35992536  0.68620197  0.60120707    -0.84100
C548        C  0.33239301  0.59127347  0.68618566     0.96670
C549        C  0.29213655  0.64949318  0.70377131     1.04110
O550        O  0.34781381  0.66153078  0.66067213    -1.13080
O551        O  0.31478478  0.71402793  0.64051707    -0.75510
O552        O  0.28570033  0.67405093  0.65256739    -0.79000
O553        O  0.35898686  0.60149646  0.68754651    -0.79690
C554        C  0.28933944  0.70287564  0.64760213     0.95570
O555        O  0.31407368  0.66891665  0.60273750    -0.77640
O556        O  0.35787517  0.72314563  0.68501595    -0.82840
C557        C  0.41491967  0.67937489  0.67795713     0.98200
C558        C  0.36067744  0.71521271  0.71208075     1.04110
O559        O  0.40558803  0.65326857  0.68668712    -0.78480
C560        C  0.33388384  0.68467627  0.58973737     1.02410
C561        C  0.99035419  0.77073430  0.77332247     0.00020
C562        C  0.02102796  0.77010907  0.77293492     0.00020
C563        C  0.26578303  0.77165935  0.51874031     0.00020
C564        C  0.26339428  0.77104314  0.48793977     0.00020
C565        C  0.98705652  0.74604081  0.27319855     0.00020
C566        C  0.01769393  0.74818900  0.27026990     0.00020
Fe567      Fe  0.31767199  0.87236400  0.13962270     1.65780
Fe568      Fe  0.36009288  0.85865916  0.20245954     1.73250
Fe569      Fe  0.36924857  0.81506776  0.14172815     1.54420
O570        O  0.32615106  0.79521506  0.15147811    -0.82220
O571        O  0.40650990  0.85427527  0.19715810    -0.80520
O572        O  0.29190925  0.83403299  0.15142494    -0.84720
O573        O  0.30951979  0.84504126  0.10252088    -0.79580
O574        O  0.34839450  0.78575279  0.17275353    -0.81350
O575        O  0.35907621  0.90550676  0.19743315    -0.84100
C576        C  0.32162618  0.82143596  0.09175740     0.96670
C577        C  0.29851199  0.80535057  0.15152857     1.04110
O578        O  0.35156391  0.85134424  0.15930167    -1.13080
O579        O  0.31591817  0.86061596  0.21357193    -0.75510
O580        O  0.28580772  0.85777667  0.17320823    -0.79000
O581        O  0.34502634  0.81019391  0.10311677    -0.79690
C582        C  0.28999264  0.85848732  0.20220314     0.95570
O583        O  0.31715806  0.90590591  0.17139607    -0.77640
O584        O  0.35829852  0.81348318  0.21391562    -0.82840
C585        C  0.41654746  0.82762330  0.19188275     0.98200
C586        C  0.35188615  0.78853812  0.20146909     1.04110
O587        O  0.40214125  0.81013714  0.17468117    -0.78480
C588        C  0.33324916  0.91690785  0.19204440     1.02410
Fe589      Fe  0.13744763  0.80918068  0.36088191     1.65780
Fe590      Fe  0.19238321  0.86132265  0.36676947     1.73250
Fe591      Fe  0.13783558  0.87229286  0.31292227     1.54420
O592        O  0.13571299  0.83575787  0.28626258    -0.82220
O593        O  0.17820826  0.90570770  0.36791492    -0.80520
O594        O  0.13004163  0.79588213  0.31703793    -0.84720
O595        O  0.09718993  0.83152549  0.36348395    -0.79580
O596        O  0.17852095  0.87892480  0.29254936    -0.81350
O597        O  0.17299406  0.85672499  0.40785339    -0.84100
C598        C  0.08464186  0.83952777  0.33902035     0.96670
C599        C  0.13400109  0.80774599  0.29122507     1.04110
O600        O  0.15581898  0.84767015  0.34684588    -1.13080
O601        O  0.21081248  0.81811880  0.36832235    -0.75510
O602        O  0.17578683  0.78438219  0.35781281    -0.79000
O603        O  0.09319070  0.86417820  0.32645039    -0.79690
C604        C  0.20266126  0.79109225  0.36307553     0.95570
O605        O  0.14750313  0.81459809  0.40698320    -0.77640
O606        O  0.21350800  0.86557792  0.32590474    -0.82840
C607        C  0.16883092  0.91995471  0.34507977     0.98200
C608        C  0.20525938  0.87164501  0.29914549     1.04110
O609        O  0.14298397  0.91337518  0.33483529    -0.78480
C610        C  0.16814763  0.83066288  0.41843890     1.02410
Fe611      Fe  0.36246036  0.63604919  0.31282176     1.65780
Fe612      Fe  0.36564165  0.69368278  0.36451206     1.73250
Fe613      Fe  0.31971400  0.63426207  0.37472140     1.54420
O614        O  0.29054613  0.64950682  0.33971238    -0.82220
O615        O  0.36266357  0.68492675  0.41080668    -0.80520
O616        O  0.31848645  0.63467470  0.29973232    -0.84720
O617        O  0.35839048  0.59072170  0.32694414    -0.79580
O618        O  0.29116410  0.67154050  0.36098389    -0.81350
O619        O  0.40922006  0.67760058  0.35927348    -0.84100
C620        C  0.33109550  0.58263061  0.33040756     0.96670
C621        C  0.29405054  0.64432975  0.31112099     1.04110
O622        O  0.35146664  0.65356451  0.35195176    -1.13080
O623        O  0.36657424  0.71275285  0.32249308    -0.75510
O624        O  0.36240808  0.67565741  0.28965078    -0.79000
O625        O  0.31427230  0.59841231  0.34698860    -0.79690
C626        C  0.36321530  0.70322455  0.29610103     0.95570
O627        O  0.40814501  0.64233639  0.32308811    -0.77640
O628        O  0.32304958  0.71066859  0.36649267    -0.82840
C629        C  0.33599728  0.68272275  0.42095033     0.98200
C630        C  0.29670917  0.70047566  0.36347416     1.04110
O631        O  0.31847975  0.66435908  0.40868429    -0.78480
C632        C  0.41975637  0.66622061  0.33484950     1.02410
Fe633      Fe  0.19572409  0.64481984  0.14826089     1.65780
Fe634      Fe  0.14147949  0.65068649  0.20227221     1.73250
Fe635      Fe  0.13751462  0.69325736  0.14010051     1.54410
O636        O  0.17600692  0.72107723  0.15200153    -0.82220
O637        O  0.09766076  0.65088358  0.18709469    -0.80520
O638        O  0.21355480  0.68716974  0.14521310    -0.84720
O639        O  0.18439144  0.64849970  0.10203068    -0.79580
O640        O  0.15295378  0.72335578  0.17230030    -0.81350
O641        O  0.15000542  0.60398332  0.19529955    -0.84100
C642        C  0.18100612  0.67525214  0.09105997     0.96670
C643        C  0.20451872  0.71425366  0.14901385     1.04110
O644        O  0.15734766  0.66084773  0.16248012    -1.13080
O645        O  0.18047133  0.65273777  0.22419184    -0.75510
O646        O  0.21542538  0.64205097  0.19058295    -0.79000
O647        O  0.16720579  0.69515380  0.10592275    -0.79690
C648        C  0.20718882  0.64771271  0.21728724     0.95570
O649        O  0.17913990  0.60157999  0.15416583    -0.77640
O650        O  0.13776760  0.69641721  0.21316875    -0.82840
C651        C  0.08679214  0.67758206  0.18440942     0.98200
C652        C  0.14605127  0.72105119  0.20045131     1.04110
O653        O  0.10065175  0.69706726  0.16867935    -0.78480
C654        C  0.17108667  0.59120696  0.17994926     1.02410
C655        C  0.25038478  0.75348433  0.97963991     0.00020
C656        C  0.24906580  0.75050720  0.01040431     0.00020
C657        C  0.25424442  0.51384037  0.24913007     0.00020
C658        C  0.25357987  0.48269808  0.25044087     0.00020
C659        C  0.25300065  0.25674726  0.98151802     0.00020
C660        C  0.25282243  0.26027259  0.01229067     0.00020
C661        C  0.26106640  0.01732641  0.27408788     0.00020
C662        C  0.25942572  0.98634655  0.27593081     0.00020
Fe663      Fe  0.31225957  0.36982236  0.36585641     1.65780
Fe664      Fe  0.36942273  0.31979746  0.36898976     1.73250
Fe665      Fe  0.36479648  0.36571293  0.30885828     1.54420
O666        O  0.32371074  0.37131055  0.28981674    -0.82220
O667        O  0.40205841  0.31316015  0.33812395    -0.80520
O668        O  0.28990630  0.37342905  0.32586437    -0.84720
O669        O  0.32899292  0.41364457  0.35919284    -0.79580
O670        O  0.36199130  0.32174016  0.29333966    -0.81350
O671        O  0.34212679  0.31804529  0.40511038    -0.84100
C672        C  0.33876829  0.42178745  0.33312265     0.96670
C673        C  0.29689346  0.37285964  0.29844153     1.04110
O674        O  0.34982617  0.35361278  0.34881510    -1.13080
O675        O  0.33121527  0.29352406  0.35742194    -0.75510
O676        O  0.29427015  0.32704719  0.36868626    -0.79000
O677        O  0.36353529  0.41044498  0.32355252    -0.79690
C678        C  0.30326416  0.30010610  0.36299253     0.95570
O679        O  0.32586662  0.36458658  0.41093151    -0.77640
O680        O  0.35112508  0.29283036  0.33449082    -0.82840
C681        C  0.41768145  0.33031610  0.32187190     0.98200
C682        C  0.35372340  0.29694436  0.30563253     1.04110
O683        O  0.41013847  0.35817370  0.31926718    -0.78480
C684        C  0.32770327  0.33713479  0.42032119     1.02410
Fe685      Fe  0.19068825  0.14636330  0.36360189     1.65780
Fe686      Fe  0.14017113  0.20527059  0.35998856     1.73250
Fe687      Fe  0.13025758  0.14291378  0.31900060     1.54420
O688        O  0.16641395  0.15466683  0.28980027    -0.82220
O689        O  0.09497197  0.19441477  0.36114765    -0.80520
O690        O  0.20616730  0.14335609  0.31988882    -0.84720
O691        O  0.17506149  0.10217962  0.36135500    -0.79580
O692        O  0.14447581  0.17586717  0.28746635    -0.81350
O693        O  0.14718978  0.19482601  0.40559544    -0.84100
C694        C  0.17314413  0.09197997  0.33472667     0.96670
C695        C  0.19500504  0.15058857  0.29425763     1.04110
O696        O  0.15283946  0.16418654  0.34945199    -1.13080
O697        O  0.18184996  0.22309249  0.35793500    -0.75510
O698        O  0.21419204  0.18575373  0.36601573    -0.79000
O699        O  0.15834362  0.10675761  0.31546030    -0.79690
C700        C  0.20810572  0.21343100  0.36215040     0.95570
O701        O  0.17634025  0.15331181  0.40731755    -0.77640
O702        O  0.13637574  0.21850443  0.31474966    -0.82840
C703        C  0.08316801  0.19060544  0.33542358     0.98200
C704        C  0.14124239  0.20505553  0.28977318     1.04110
O705        O  0.09636915  0.17428843  0.31624285    -0.78480
C706        C  0.16939055  0.17982484  0.41689901     1.02410
Fe707      Fe  0.12906644  0.32048902  0.13301255     1.65780
Fe708      Fe  0.13809146  0.36315253  0.19510381     1.73250
Fe709      Fe  0.19146480  0.36206761  0.13987248     1.54420
O710        O  0.20391274  0.31668801  0.13633203    -0.82220
O711        O  0.14480562  0.40800927  0.18195340    -0.80520
O712        O  0.16268938  0.28843818  0.14561079    -0.84720
O713        O  0.15820820  0.31666529  0.09712206    -0.79580
O714        O  0.21324763  0.36177561  0.18014066    -0.81350
O715        O  0.09331035  0.36305395  0.18247684    -0.84100
C716        C  0.17461355  0.33594267  0.08410798     0.96670
C717        C  0.19147275  0.29130683  0.14248891     1.04110
O718        O  0.15212122  0.35044926  0.15529670    -1.13080
O719        O  0.13514883  0.31827144  0.20953134    -0.75510
O720        O  0.14154994  0.28935650  0.16767936    -0.79000
O721        O  0.17741663  0.36215840  0.09541559    -0.79690
C722        C  0.13977367  0.29277799  0.19669764     0.95570
O723        O  0.09448329  0.31756292  0.16337326    -0.77640
O724        O  0.17889077  0.36356257  0.21569773    -0.82840
C725        C  0.17010599  0.41761527  0.17219668     0.98200
C726        C  0.20585493  0.36316748  0.20742103     1.04110
O727        O  0.18084373  0.40775765  0.14720188    -0.78480
C728        C  0.08188795  0.33691139  0.18010796     1.02410
Fe729      Fe  0.35032395  0.19818598  0.14500112     1.65780
Fe730      Fe  0.35628693  0.14329557  0.19950938     1.73250
Fe731      Fe  0.30995059  0.13420955  0.14123780     1.54410
O732        O  0.27852442  0.16953799  0.15338942    -0.82220
O733        O  0.35509417  0.09798111  0.18736283    -0.80520
O734        O  0.30613967  0.21012133  0.14015569    -0.84720
O735        O  0.35010062  0.18442257  0.10025621    -0.79580
O736        O  0.28195762  0.14989350  0.17647171    -0.81350
O737        O  0.40038419  0.15138418  0.18559788    -0.84100
C738        C  0.32396516  0.17942669  0.08985802     0.96670
C739        C  0.28142267  0.19850126  0.14801932     1.04110
O740        O  0.34118346  0.15763894  0.16054838    -1.13080
O741        O  0.35734468  0.18362885  0.21982663    -0.75510
O742        O  0.34757203  0.21941638  0.18604355    -0.79000
O743        O  0.30679424  0.16185983  0.10426673    -0.79690
C744        C  0.35169749  0.21060473  0.21279574     0.95570
O745        O  0.39581500  0.18962962  0.15192775    -0.77640
O746        O  0.31275100  0.14060098  0.21607259    -0.82840
C747        C  0.32883332  0.08697083  0.18772500     0.98200
C748        C  0.28709279  0.14779551  0.20522070     1.04110
O749        O  0.30813104  0.10007484  0.17297193    -0.78480
C750        C  0.40994077  0.17614724  0.17349585     1.02410
C751        C  0.97783734  0.27184189  0.26815605     0.00020
C752        C  0.00854894  0.27363547  0.26785342     0.00020
C753        C  0.03338387  0.32191798  0.24981140    -0.26860
C754        C  0.02450947  0.29191911  0.24416689    -0.14930
C755        C  0.03091969  0.27941256  0.21580541     0.35700
C756        C  0.04665200  0.29622478  0.19432409    -0.26310
C757        C  0.05776482  0.32528873  0.20049277    -0.15550
C758        C  0.05020062  0.33867645  0.22840217     0.36780
N759        N  0.06059777  0.36850892  0.23550938    -0.89800
H760        H  0.02765206  0.33211751  0.27116103     0.17900
H761        H  0.05173405  0.28539351  0.17307010     0.17890
N762        N  0.02230854  0.24915297  0.20871679    -0.88830
H763        H  0.05380597  0.37464236  0.25717690     0.35270
H764        H  0.05008020  0.38371745  0.22064535     0.40360
H765        H  0.04173971  0.23668225  0.20398224     0.39980
H766        H  0.00955621  0.25004626  0.18895803     0.34870
C767        C  0.24058442  0.27238799  0.15749734    -0.26860
C768        C  0.21171747  0.26531450  0.14793859    -0.14930
C769        C  0.20420773  0.23469047  0.14267962     0.35700
C770        C  0.22689973  0.21220581  0.14465932    -0.26310
C771        C  0.25643758  0.22014967  0.15182266    -0.15550
C772        C  0.26287469  0.25052824  0.15926280     0.36780
N773        N  0.29245957  0.25986458  0.16746280    -0.89800
H774        H  0.24643824  0.29554508  0.16283005     0.17900
H775        H  0.22190935  0.18890774  0.13909513     0.17890
N776        N  0.17431971  0.22672951  0.13394306    -0.88830
H777        H  0.29092775  0.27193357  0.18754804     0.35270
H778        H  0.29996999  0.27505194  0.15098049     0.40360
H779        H  0.16047119  0.23022894  0.15259704     0.39980
H780        H  0.17320168  0.20358140  0.12916998     0.34870
C781        C  0.03115795  0.22279644  0.27770457    -0.26860
C782        C  0.02702917  0.25269254  0.28723400    -0.14930
C783        C  0.03795047  0.26103474  0.31585479     0.35700
C784        C  0.05394925  0.23948233  0.33356449    -0.26310
C785        C  0.05776633  0.20939728  0.32377312    -0.15550
C786        C  0.04359283  0.20064500  0.29661483     0.36780
N787        N  0.04257096  0.16955318  0.28695479    -0.89800
H788        H  0.02298496  0.21593104  0.25592185     0.17900
H789        H  0.06481844  0.24664040  0.35410920     0.17890
N790        N  0.03357815  0.29144216  0.32642040    -0.88830
H791        H  0.02036135  0.16481320  0.28132104     0.35270
H792        H  0.04710139  0.15495761  0.30505728     0.40360
H793        H  0.04664254  0.30560615  0.31293687     0.39980
H794        H  0.04182014  0.29351148  0.34834943     0.34870
C795        C  0.24567063  0.16285368  0.27737167    -0.26860
C796        C  0.21644775  0.15466954  0.26948572    -0.14930
C797        C  0.20947071  0.14879438  0.23909658     0.35700
C798        C  0.23274466  0.14837950  0.21778499    -0.26310
C799        C  0.26251641  0.15351347  0.22655273    -0.15550
C800        C  0.26873504  0.16248065  0.25633659     0.36780
N801        N  0.29849063  0.17087416  0.26527463    -0.89800
H802        H  0.25078927  0.16888353  0.30041393     0.17900
H803        H  0.22785297  0.14238761  0.19468697     0.17890
N804        N  0.17930676  0.14208929  0.23017620    -0.88830
H805        H  0.29924632  0.17627662  0.28815394     0.35270
H806        H  0.30367732  0.19071715  0.25353163     0.40360
H807        H  0.17364420  0.12132059  0.24000146     0.39980
H808        H  0.17804452  0.13910586  0.20687069     0.34870
C809        C  0.16745720  0.24366810  0.26006398    -0.26860
C810        C  0.14350384  0.22362407  0.26269267    -0.14930
C811        C  0.12067638  0.22335228  0.24084996     0.35700
C812        C  0.12102316  0.24509081  0.21769104    -0.26310
C813        C  0.14399893  0.26643480  0.21618812    -0.15550
C814        C  0.16824376  0.26490033  0.23666717     0.36780
N815        N  0.19374493  0.28451519  0.23447608    -0.89800
H816        H  0.18531436  0.24318981  0.27664760     0.17900
H817        H  0.10253912  0.24653198  0.20187107     0.17890
N818        N  0.09636500  0.20235787  0.24348444    -0.88830
H819        H  0.19314936  0.29922746  0.25283045     0.35270
H820        H  0.19311789  0.29775845  0.21490661     0.40360
H821        H  0.10521972  0.18052286  0.24076604     0.39980
H822        H  0.08099262  0.20570095  0.22599177     0.34870
C823        C  0.32516596  0.24977109  0.24240399    -0.26860
C824        C  0.35078361  0.23205229  0.23737562    -0.14930
C825        C  0.37453070  0.23231324  0.25794475     0.35700
C826        C  0.37350019  0.25195555  0.28220711    -0.26310
C827        C  0.34917724  0.27161513  0.28580484    -0.15550
C828        C  0.32416186  0.27002804  0.26641940     0.36780
N829        N  0.29752227  0.28802941  0.27071886    -0.89800
H830        H  0.30572240  0.24720554  0.22822367     0.17900
H831        H  0.39235446  0.25288870  0.29743423     0.17890
N832        N  0.40030116  0.21349589  0.25325317    -0.88830
H833        H  0.29518105  0.30227057  0.25196017     0.35270
H834        H  0.29921416  0.30181825  0.28965309     0.40360
H835        H  0.41834659  0.22786131  0.24967933     0.39980
H836        H  0.40411697  0.20055912  0.27272423     0.34870
C837        C  0.26093754  0.22644057  0.35231827    -0.26860
C838        C  0.23253328  0.23528185  0.36284573    -0.14930
C839        C  0.22819291  0.26470240  0.37438028     0.35700
C840        C  0.25195296  0.28451871  0.37481227    -0.26310
C841        C  0.28022778  0.27638365  0.36335201    -0.15550
C842        C  0.28498309  0.24670180  0.35241548     0.36780
N843        N  0.31372712  0.23723230  0.34114435    -0.89800
H844        H  0.26430541  0.20373465  0.34370710     0.17900
H845        H  0.24779654  0.30684698  0.38397783     0.17890
N846        N  0.20013329  0.27523730  0.38623988    -0.88830
H847        H  0.31264067  0.21541654  0.33215723     0.35270
H848        H  0.32833393  0.23574366  0.35952177     0.40360
H849        H  0.19294953  0.26009822  0.40283203     0.39980
H850        H  0.18435051  0.27641494  0.36888185     0.34870
C851        C  0.28121336  0.36364246  0.24616740    -0.26860
C852        C  0.27323778  0.37279300  0.27532820    -0.14930
C853        C  0.24295135  0.37969325  0.28182242     0.35700
C854        C  0.22141028  0.37613436  0.25924842    -0.26310
C855        C  0.22936664  0.36585016  0.23044418    -0.15550
C856        C  0.25967304  0.35968931  0.22391487     0.36780
N857        N  0.26878275  0.34869666  0.19500732    -0.89800
H858        H  0.30431750  0.35830869  0.24067582     0.17900
H859        H  0.19822044  0.38141088  0.26431909     0.17890
N860        N  0.23405402  0.39056435  0.31096819    -0.88830
H861        H  0.27962646  0.32779163  0.19813766     0.35270
H862        H  0.28427217  0.36388517  0.18594962     0.40360
H863        H  0.23445208  0.37202056  0.32576731     0.39980
H864        H  0.21182819  0.39827518  0.31052491     0.34870
C865        C  0.21147599  0.04235598  0.27758639    -0.26860
C866        C  0.23915337  0.03636408  0.29105616    -0.14930
C867        C  0.24398686  0.04550483  0.32105868     0.35700
C868        C  0.22129441  0.06195277  0.33632933    -0.26310
C869        C  0.19340985  0.06801889  0.32254744    -0.15550
C870        C  0.18827378  0.05630959  0.29322287     0.36780
N871        N  0.15954753  0.05750671  0.27868468    -0.89800
H872        H  0.20717234  0.03482071  0.25492749     0.17900
H873        H  0.22579912  0.07093092  0.35850243     0.17890
N874        N  0.27213796  0.03890303  0.33547623    -0.88830
H875        H  0.15478859  0.07945823  0.27107612     0.35270
H876        H  0.14314483  0.05029167  0.29386113     0.40360
H877        H  0.27410078  0.01534957  0.33756907     0.39980
H878        H  0.27228532  0.04752110  0.35734907     0.34870
C879        C  0.29525436  0.04468957  0.19959473    -0.26860
C880        C  0.31888315  0.06300219  0.20925179    -0.14930
C881        C  0.32495717  0.06430068  0.24057922     0.35700
C882        C  0.30614177  0.04916542  0.26119885    -0.26310
C883        C  0.28111139  0.03274852  0.25142050    -0.15550
C884        C  0.27605296  0.03023785  0.22007703     0.36780
N885        N  0.25039885  0.01452638  0.20893589    -0.89800
H886        H  0.29003079  0.04387390  0.17576177     0.17900
H887        H  0.31078042  0.05072158  0.28508156     0.17890
N888        N  0.34925669  0.08166007  0.25223515    -0.88830
H889        H  0.25219862  0.01105323  0.18573273     0.35270
H890        H  0.23184799  0.02874934  0.21187448     0.40360
H891        H  0.34615442  0.10438104  0.24617347     0.39980
H892        H  0.36910969  0.07376378  0.24243766     0.34870
C893        C  0.30368168  0.24146387  0.03074605    -0.26860
C894        C  0.27211449  0.24023512  0.03200586    -0.14930
C895        C  0.25880808  0.21824392  0.05050270     0.35700
C896        C  0.27683492  0.19755894  0.06626071    -0.26310
C897        C  0.30854407  0.19881368  0.06620751    -0.15550
C898        C  0.32212794  0.22097048  0.04730913     0.36780
N899        N  0.35404239  0.22326246  0.04374999    -0.89800
H900        H  0.31412163  0.25833693  0.01645658     0.17900
H901        H  0.26529501  0.18113307  0.08014588     0.17890
N902        N  0.22679810  0.21683250  0.05345956    -0.88830
H903        H  0.35870963  0.22134353  0.02075715     0.35270
H904        H  0.36511202  0.20489581  0.05372343     0.40360
H905        H  0.22003228  0.23551123  0.06620731     0.39980
H906        H  0.22038670  0.19769013  0.06580999     0.34870
C907        C  0.18237575  0.30272142  0.04019576    -0.26860
C908        C  0.19459251  0.32395786  0.05999335    -0.14930
C909        C  0.22613331  0.32566816  0.06244337     0.35700
C910        C  0.24447376  0.30511763  0.04625292    -0.26310
C911        C  0.23211302  0.28278165  0.02761755    -0.15550
C912        C  0.20047309  0.28188727  0.02448433     0.36780
N913        N  0.18648447  0.25907450  0.00647175    -0.89800
H914        H  0.15821617  0.30078230  0.03884072     0.17900
H915        H  0.26860166  0.30602520  0.04873647     0.17890
N916        N  0.23937800  0.34668129  0.08302662    -0.88830
H917        H  0.16329794  0.26252110  0.00540861     0.35270
H918        H  0.18981425  0.23804853  0.01682674     0.40360
H919        H  0.23468338  0.36854861  0.07497411     0.39980
H920        H  0.26270828  0.34428035  0.08311478     0.34870
C921        C  0.21532654  0.45075237  0.17989617    -0.26860
C922        C  0.18935414  0.43732470  0.19192405    -0.14930
C923        C  0.18484294  0.43910888  0.22355521     0.35700
C924        C  0.20680503  0.45243223  0.24203641    -0.26310
C925        C  0.23277406  0.46546052  0.23002897    -0.15550
C926        C  0.23668220  0.46512824  0.19842956     0.36780
N927        N  0.26223880  0.47964318  0.18520050    -0.89800
H928        H  0.21925054  0.44971988  0.15585624     0.17900
H929        H  0.20294356  0.45358579  0.26596574     0.17890
N930        N  0.15834192  0.42677807  0.23715234    -0.88830
H931        H  0.26139979  0.47833745  0.16171608     0.35270
H932        H  0.28131338  0.46751778  0.19197343     0.40360
H933        H  0.14020626  0.44025688  0.23015543     0.39980
H934        H  0.15924098  0.42849996  0.26061037     0.34870
C935        C  0.29100708  0.45120632  0.32270491    -0.26860
C936        C  0.31842769  0.43958501  0.31190114    -0.14930
C937        C  0.32392589  0.44187265  0.28039675     0.35700
C938        C  0.30174545  0.45425303  0.26092950    -0.26310
C939        C  0.27433080  0.46554294  0.27180105    -0.15550
C940        C  0.26917294  0.46415562  0.30325875     0.36780
N941        N  0.24179416  0.47597249  0.31559200    -0.89800
H942        H  0.28618599  0.44964758  0.34656328     0.17900
H943        H  0.30636891  0.45602541  0.23708185     0.17890
N944        N  0.35175328  0.43113018  0.26796344    -0.88830
H945        H  0.24268230  0.47599015  0.33912182     0.35270
H946        H  0.22475003  0.46105449  0.30990578     0.40360
H947        H  0.36864663  0.44534884  0.27576662     0.39980
H948        H  0.35169798  0.43320639  0.24449043     0.34870
C949        C  0.22172053  0.56886911  0.18996529    -0.26860
C950        C  0.19048393  0.56715327  0.19469769    -0.14930
C951        C  0.18018366  0.54644249  0.21699844     0.35700
C952        C  0.20107107  0.52937510  0.23426212    -0.26310
C953        C  0.23226351  0.53193123  0.22993419    -0.15550
C954        C  0.24239463  0.55201104  0.20748666     0.36780
N955        N  0.27385968  0.55557432  0.20250187    -0.89800
H956        H  0.23046688  0.58466095  0.17344069     0.17900
H957        H  0.19277496  0.51415969  0.25152334     0.17890
N958        N  0.14888157  0.54137907  0.22230493    -0.88830
H959        H  0.27907166  0.57839120  0.20576659     0.35270
H960        H  0.27840240  0.55024556  0.18005113     0.40360
H961        H  0.13549037  0.55177437  0.20589335     0.39980
H962        H  0.14345276  0.55086438  0.24313149     0.34870
C963        C  0.18304185  0.71444808  0.05130287    -0.26860
C964        C  0.19548663  0.68726261  0.06299197    -0.14930
C965        C  0.22454352  0.67881574  0.05351335     0.35700
C966        C  0.24079080  0.69858561  0.03427322    -0.26310
C967        C  0.22933090  0.72739836  0.02572364    -0.15550
C968        C  0.20008157  0.73528053  0.03477856     0.36780
N969        N  0.18869685  0.76551040  0.03000789    -0.89800
H970        H  0.16066958  0.72127004  0.05811769     0.17900
H971        H  0.26335906  0.69235321  0.02791009     0.17890
N972        N  0.23814353  0.65128474  0.06463537    -0.88830
H973        H  0.16796741  0.76853448  0.04057492     0.35270
H974        H  0.18481074  0.76857881  0.00711910     0.40360
H975        H  0.24172253  0.65385030  0.08774172     0.39980
H976        H  0.25928271  0.64809734  0.05496647     0.34870
C977        C  0.28290678  0.55891475  0.31549984    -0.26860
C978        C  0.31431995  0.56052508  0.31076938    -0.14930
C979        C  0.32600009  0.54572064  0.28503570     0.35700
C980        C  0.30641578  0.53040174  0.26526941    -0.26310
C981        C  0.27501615  0.53091036  0.26951436    -0.15550
C982        C  0.26330530  0.54607066  0.29459460     0.36780
N983        N  0.23138453  0.54931429  0.29834143    -0.89800
H984        H  0.27291593  0.56929417  0.33511100     0.17900
H985        H  0.31567091  0.51870873  0.24597458     0.17890
N986        N  0.35729776  0.54607398  0.27813302    -0.88830
H987        H  0.22627982  0.56146798  0.31782151     0.35270
H988        H  0.22216200  0.52784989  0.30120638     0.40360
H989        H  0.36904802  0.53721640  0.29662860     0.39980
H990        H  0.36374514  0.56854856  0.27465350     0.34870
C991        C  0.27833445  0.65937742  0.26065535    -0.26860
C992        C  0.26989400  0.64960678  0.28954597    -0.14930
C993        C  0.24012064  0.64136646  0.29532935     0.35700
C994        C  0.21989687  0.64080245  0.27119920    -0.26310
C995        C  0.22902694  0.64877512  0.24183817    -0.15550
C996        C  0.25809034  0.65950101  0.23687227     0.36780
N997        N  0.26669151  0.67119667  0.20796296    -0.89800
H998        H  0.30117866  0.66635453  0.25644188     0.17900
H999        H  0.19711648  0.63349702  0.27519632     0.17890
N1000       N  0.23074456  0.63295992  0.32517999    -0.88830
H1001       H  0.28907907  0.67799921  0.20813249     0.35270
H1002       H  0.25383297  0.69081722  0.20431285     0.40360
H1003       H  0.24228775  0.61318215  0.33133096     0.39980
H1004       H  0.20795412  0.62768008  0.32539922     0.34870
C1005       C  0.20495300  0.97296866  0.28683259    -0.26860
C1006       C  0.23560698  0.97079319  0.29462028    -0.14930
C1007       C  0.24359263  0.95286364  0.31961907     0.35700
C1008       C  0.22134227  0.93795964  0.33641758    -0.26310
C1009       C  0.19063339  0.93984670  0.32854800    -0.15550
C1010       C  0.18246549  0.95813977  0.30362439     0.36780
N1011       N  0.15151618  0.96138987  0.29514950    -0.89800
H1012       H  0.19836897  0.98559528  0.26700181     0.17900
H1013       H  0.22849337  0.92389813  0.35523941     0.17890
N1014       N  0.27446589  0.94944602  0.32787014    -0.88830
H1015       H  0.14933596  0.97534730  0.27612211     0.35270
H1016       H  0.14050954  0.97260138  0.31268387     0.40360
H1017       H  0.27689759  0.95668615  0.35009821     0.39980
H1018       H  0.27998271  0.92637260  0.32713391     0.34870
C1019       C  0.12067610  0.79005711  0.24089077    -0.26860
C1020       C  0.13954059  0.78805956  0.26594022    -0.14930
C1021       C  0.16488766  0.76854771  0.26565329     0.35700
C1022       C  0.16748269  0.74747032  0.24272721    -0.26310
C1023       C  0.14688950  0.74753395  0.21913372    -0.15550
C1024       C  0.12418206  0.76984620  0.21726860     0.36780
N1025       N  0.10373772  0.77153327  0.19244888    -0.89800
H1026       H  0.10280215  0.80679120  0.24014195     0.17900
H1027       H  0.18543449  0.73071498  0.24348789     0.17890
N1028       N  0.18845305  0.76984794  0.28772198    -0.88830
H1029       H  0.11614614  0.77426787  0.17267490     0.35270
H1030       H  0.09228411  0.75108015  0.19125097     0.40360
H1031       H  0.18609960  0.78895595  0.30120100     0.39980
H1032       H  0.20859080  0.77318540  0.27617753     0.34870
C1033       C  0.25414058  0.77415616  0.37382010    -0.26860
C1034       C  0.22561741  0.76676328  0.36333475    -0.14930
C1035       C  0.22014198  0.73682721  0.35320690     0.35700
C1036       C  0.24371492  0.71549301  0.35320858    -0.26310
C1037       C  0.27228083  0.72322935  0.36346702    -0.15550
C1038       C  0.27730226  0.75298360  0.37415745     0.36780
N1039       N  0.30580101  0.76204651  0.38585022    -0.89800
H1040       H  0.25876492  0.79669055  0.38210681     0.17900
H1041       H  0.23971226  0.69276061  0.34519818     0.17890
N1042       N  0.19100109  0.72808705  0.34272628    -0.88830
H1043       H  0.30273372  0.76959814  0.40790336     0.35270
H1044       H  0.31344481  0.78031833  0.37292648     0.40360
H1045       H  0.17685254  0.72727640  0.36146165     0.39980
H1046       H  0.19160030  0.70610911  0.33403081     0.34870
C1047       C  0.28501313  0.93546648  0.21267521    -0.26860
C1048       C  0.31669139  0.93724153  0.21361485    -0.14930
C1049       C  0.32966687  0.95483266  0.23680306     0.35700
C1050       C  0.31082105  0.96936567  0.25795624    -0.26310
C1051       C  0.27930927  0.96717636  0.25647083    -0.15550
C1052       C  0.26649911  0.94966025  0.23373049     0.36780
N1053       N  0.23449658  0.94674241  0.23163107    -0.89800
H1054       H  0.27403064  0.92224006  0.19554609     0.17900
H1055       H  0.32081545  0.98330162  0.27519800     0.17890
N1056       N  0.36132032  0.95987421  0.23893162    -0.88830
H1057       H  0.22866956  0.93349212  0.21333364     0.35270
H1058       H  0.22531986  0.96801767  0.22678775     0.40360
H1059       H  0.37268788  0.95240584  0.21984862     0.39980
H1060       H  0.36934922  0.94757297  0.25750931     0.34870
C1061       C  0.28370039  0.81823800  0.05068278    -0.26860
C1062       C  0.30576450  0.80383770  0.06829801    -0.14930
C1063       C  0.30909900  0.77180768  0.06655787     0.35700
C1064       C  0.29036067  0.75533428  0.04748290    -0.26310
C1065       C  0.26804387  0.76964712  0.03030461    -0.15550
C1066       C  0.26458216  0.80152185  0.03203007     0.36780
N1067       N  0.24121823  0.81683757  0.01556323    -0.89800
H1068       H  0.28057162  0.84256569  0.05234480     0.17900
H1069       H  0.29337665  0.73103713  0.04598271     0.17890
N1070       N  0.33048685  0.75573686  0.08511832    -0.88830
H1071       H  0.24332484  0.84035412  0.01735001     0.35270
H1072       H  0.22094499  0.81145627  0.02581904     0.40360
H1073       H  0.35179461  0.76041501  0.07660763     0.39980
H1074       H  0.32780067  0.73228209  0.08333753     0.34870
C1075       C  0.33145297  0.72904578  0.25858454    -0.26860
C1076       C  0.35986264  0.72485259  0.27156587    -0.14930
C1077       C  0.38459512  0.74045950  0.26002021     0.35700
C1078       C  0.38135119  0.75679400  0.23352382    -0.26310
C1079       C  0.35302324  0.76229273  0.22114533    -0.15550
C1080       C  0.32742310  0.74918481  0.23442666     0.36780
N1081       N  0.29740178  0.75742195  0.22584284    -0.89800
H1082       H  0.31211621  0.71822024  0.26855964     0.17900
H1083       H  0.40076973  0.76829254  0.22453184     0.17890
N1084       N  0.41265392  0.74199242  0.27546338    -0.88830
H1085       H  0.28735343  0.73823559  0.21673967     0.35270
H1086       H  0.29726194  0.77431708  0.20932745     0.40360
H1087       H  0.41153379  0.73129743  0.29633046     0.39980
H1088       H  0.41622922  0.76477620  0.28045280     0.34870
C1089       C  0.21730598  0.87328371  0.24420464    -0.26860
C1090       C  0.22698604  0.86817682  0.27413480    -0.14930
C1091       C  0.25584788  0.85571492  0.27911493     0.35700
C1092       C  0.27419663  0.84960097  0.25447935    -0.26310
C1093       C  0.26557733  0.85707431  0.22478415    -0.15550
C1094       C  0.23624171  0.86766032  0.21957032     0.36780
N1095       N  0.22527431  0.87216628  0.18959072    -0.89800
H1096       H  0.19478718  0.88151316  0.23970609     0.17900
H1097       H  0.29629891  0.84016144  0.25884332     0.17890
N1098       N  0.26669729  0.84919187  0.30903284    -0.88830
H1099       H  0.21802331  0.89452267  0.18680097     0.35270
H1100       H  0.20645388  0.85846242  0.18700659     0.40360
H1101       H  0.26994740  0.86994758  0.31973716     0.39980
H1102       H  0.28767344  0.83844968  0.30845234     0.34870
C1103       C  0.28099809  0.75215504  0.15358194    -0.26860
C1104       C  0.27354820  0.78293656  0.15119322    -0.14930
C1105       C  0.24325592  0.79083699  0.14454597     0.35700
C1106       C  0.22088703  0.76847095  0.14587437    -0.26310
C1107       C  0.22841393  0.73776929  0.14936869    -0.15550
C1108       C  0.25939151  0.72960703  0.15075735     0.36780
N1109       N  0.26932736  0.69862109  0.14788136    -0.89800
H1110       H  0.30422775  0.74532029  0.15615963     0.17900
H1111       H  0.19766105  0.77488561  0.14225432     0.17890
N1112       N  0.23555034  0.82058128  0.13357823    -0.88830
H1113       H  0.29245022  0.69657322  0.15127161     0.35270
H1114       H  0.26559836  0.69230419  0.12554325     0.40360
H1115       H  0.23738072  0.83527000  0.15155039     0.39980
H1116       H  0.21310983  0.82162479  0.12682782     0.34870
C1117       C  0.02996659  0.73232318  0.21714619    -0.26860
C1118       C  0.03425362  0.72804431  0.24826031    -0.14930
C1119       C  0.05252647  0.70350664  0.25793858     0.35700
C1120       C  0.06674949  0.68463898  0.23642250    -0.26310
C1121       C  0.06326654  0.68970981  0.20523528    -0.15550
C1122       C  0.04339021  0.71319870  0.19572490     0.36780
N1123       N  0.03706840  0.71899109  0.16442117    -0.89800
H1124       H  0.01615030  0.75103208  0.20923349     0.17900
H1125       H  0.08232925  0.66723598  0.24408110     0.17890
N1126       N  0.05692089  0.69801064  0.28956432    -0.88830
H1127       H  0.01389900  0.71719409  0.16149882     0.35270
H1128       H  0.04646380  0.70221013  0.15081224     0.40360
H1129       H  0.06939936  0.71600465  0.29798897     0.39980
H1130       H  0.06992547  0.67844695  0.29299934     0.34870
C1131       C  0.03878721  0.76851367  0.31901518    -0.26860
C1132       C  0.03491201  0.77183525  0.28775085    -0.14930
C1133       C  0.04495629  0.79890840  0.27394919     0.35700
C1134       C  0.05941005  0.82132794  0.29134283    -0.26310
C1135       C  0.06461133  0.81749435  0.32248698    -0.15550
C1136       C  0.05348607  0.79074106  0.33642779     0.36780
N1137       N  0.05719789  0.78602194  0.36827562    -0.89800
H1138       H  0.03028292  0.74830254  0.32992719     0.17900
H1139       H  0.06756943  0.84153690  0.28017035     0.17890
N1140       N  0.03959063  0.80405090  0.24240569    -0.88830
H1141       H  0.04827816  0.76517448  0.37491322     0.35270
H1142       H  0.04463939  0.80276143  0.37922372     0.40360
H1143       H  0.05269145  0.78849703  0.23051623     0.39980
H1144       H  0.04691786  0.82558220  0.23593177     0.34870
C1145       C  0.31486030  0.75068082  0.47249260    -0.26860
C1146       C  0.28325464  0.75031804  0.46966891    -0.14930
C1147       C  0.27042262  0.72769620  0.45196032     0.35700
C1148       C  0.28850207  0.70568533  0.43880236    -0.26310
C1149       C  0.32022780  0.70555765  0.44087314    -0.15550
C1150       C  0.33349968  0.72869783  0.45840974     0.36780
N1151       N  0.36517396  0.73010216  0.46372260    -0.89800
H1152       H  0.32511995  0.76784338  0.48634916     0.17900
H1153       H  0.27672768  0.68880822  0.42588188     0.17890
N1154       N  0.23865157  0.72602378  0.44790128    -0.88830
H1155       H  0.37326109  0.74917426  0.45234215     0.35270
H1156       H  0.37639873  0.71111737  0.45542758     0.40360
H1157       H  0.23141136  0.70495352  0.45584646     0.39980
H1158       H  0.23402886  0.72733712  0.42483644     0.34870
C1159       C  0.20856961  0.77747796  0.47411220    -0.26860
C1160       C  0.23828661  0.78791587  0.47212372    -0.14930
C1161       C  0.24399167  0.81355558  0.45426129     0.35700
C1162       C  0.22034037  0.82817817  0.43878912    -0.26310
C1163       C  0.19067444  0.81718584  0.43986910    -0.15550
C1164       C  0.18494826  0.79157077  0.45828105     0.36780
N1165       N  0.15554502  0.77921009  0.46141795    -0.89800
H1166       H  0.20382455  0.75711879  0.48687637     0.17900
H1167       H  0.22567478  0.84747202  0.42459698     0.17890
N1168       N  0.27395119  0.82451059  0.45132708    -0.88830
H1169       H  0.14861956  0.77076007  0.44066414     0.35270
H1170       H  0.14089387  0.79654294  0.46807314     0.40360
H1171       H  0.27972918  0.82403452  0.42852275     0.39980
H1172       H  0.27413120  0.84710772  0.45828217     0.34870
C1173       C  0.30947677  0.75874439  0.55270890    -0.26860
C1174       C  0.28522377  0.74889747  0.53524370    -0.14930
C1175       C  0.28017121  0.71735191  0.53284068     0.35700
C1176       C  0.29926198  0.69665410  0.54778097    -0.26310
C1177       C  0.32272812  0.70638568  0.56631873    -0.15550
C1178       C  0.32822883  0.73788598  0.56833342     0.36780
N1179       N  0.35147004  0.74872107  0.58779344    -0.89800
H1180       H  0.31356800  0.78282757  0.55448003     0.17900
H1181       H  0.29438421  0.67264374  0.54677127     0.17890
N1182       N  0.25502693  0.70634078  0.51605083    -0.88830
H1183       H  0.35174843  0.77243032  0.58777476     0.35270
H1184       H  0.37196396  0.74159614  0.57877442     0.40360
H1185       H  0.23563356  0.71217295  0.52783667     0.39980
H1186       H  0.25547842  0.68265858  0.51504256     0.34870
C1187       C  0.28355298  0.82446974  0.94197659    -0.26860
C1188       C  0.31469034  0.81837868  0.94235367    -0.14930
C1189       C  0.32426383  0.79028805  0.95535124     0.35700
C1190       C  0.30311368  0.76964112  0.96689142    -0.26310
C1191       C  0.27209821  0.77528249  0.96500287    -0.15550
C1192       C  0.26243749  0.80289240  0.95185302     0.36780
N1193       N  0.23110059  0.80937993  0.94871478    -0.89800
H1194       H  0.27525629  0.84559140  0.93239453     0.17900
H1195       H  0.31101773  0.74877297  0.97734720     0.17890
N1196       N  0.35528817  0.78205244  0.95764808    -0.88830
H1197       H  0.22646781  0.81240975  0.92583153     0.35270
H1198       H  0.22641107  0.82992439  0.95938945     0.40360
H1199       H  0.36660825  0.79935992  0.96875631     0.39980
H1200       H  0.36406796  0.77947492  0.93601000     0.34870
C1201       C  0.37857013  0.78670139  0.75374227    -0.26860
C1202       C  0.36626440  0.77995997  0.78197045    -0.14930
C1203       C  0.35144953  0.75220707  0.78693725     0.35700
C1204       C  0.34951455  0.73168296  0.76334538    -0.26310
C1205       C  0.36181547  0.73843780  0.73513384    -0.15550
C1206       C  0.37629030  0.76630260  0.73004296     0.36780
N1207       N  0.38924344  0.77351619  0.70124834    -0.89800
H1208       H  0.38975725  0.80812856  0.75008803     0.17900
H1209       H  0.33822470  0.71029798  0.76695317     0.17890
N1210       N  0.33738125  0.74543738  0.81533450    -0.88830
H1211       H  0.40126429  0.79371963  0.70236123     0.35270
H1212       H  0.37161463  0.77774398  0.68624152     0.40360
H1213       H  0.35439675  0.74065023  0.83088968     0.39980
H1214       H  0.32470138  0.72566818  0.81389678     0.34870
C1215       C  0.22888331  0.83806951  0.56121234    -0.26860
C1216       C  0.20043642  0.82598109  0.56763013    -0.14930
C1217       C  0.19407009  0.79632112  0.55679217     0.35700
C1218       C  0.21641109  0.77900659  0.54323704    -0.26310
C1219       C  0.24455062  0.79082803  0.53678377    -0.15550
C1220       C  0.25074475  0.82099081  0.54520653     0.36780
N1221       N  0.27945943  0.83374761  0.53840408    -0.89800
H1222       H  0.23447334  0.86032492  0.56958034     0.17900
H1223       H  0.21122924  0.75603625  0.53696397     0.17890
N1224       N  0.16502340  0.78277523  0.55897516    -0.88830
H1225       H  0.28063438  0.85596317  0.54635809     0.35270
H1226       H  0.28137542  0.83507112  0.51498268     0.40360
H1227       H  0.14867194  0.79856924  0.55228368     0.39980
H1228       H  0.16114472  0.77517481  0.58093947     0.34870
C1229       C  0.04359128  0.77784613  0.72283620    -0.26860
C1230       C  0.03738286  0.79003967  0.75110018    -0.14930
C1231       C  0.04257144  0.82145959  0.75572678     0.35700
C1232       C  0.05642259  0.83877669  0.73279976    -0.26310
C1233       C  0.06220429  0.82633638  0.70428571    -0.15550
C1234       C  0.05260509  0.79621236  0.69884391     0.36780
N1235       N  0.05096185  0.78379500  0.66903470    -0.89800
H1236       H  0.03911769  0.75413811  0.71871135     0.17900
H1237       H  0.06325360  0.86176057  0.73756638     0.17890
N1238       N  0.03439120  0.83646483  0.78316781    -0.88830
H1239       H  0.06850103  0.76822718  0.66635089     0.35270
H1240       H  0.05274604  0.80068719  0.65253412     0.40360
H1241       H  0.02290322  0.82206264  0.79777336     0.39980
H1242       H  0.05415970  0.84278263  0.79399217     0.34870
C1243       C  0.22084801  0.88223868  0.76634761    -0.26860
C1244       C  0.22865639  0.86935247  0.73868864    -0.14930
C1245       C  0.25727810  0.85640166  0.73458482     0.35700
C1246       C  0.27856321  0.85942921  0.75717084    -0.26310
C1247       C  0.27103955  0.87295616  0.78459698    -0.15550
C1248       C  0.24129517  0.88295898  0.78978181     0.36780
N1249       N  0.23090542  0.89344495  0.81840095    -0.89800
H1250       H  0.19853046  0.89139378  0.77003423     0.17900
H1251       H  0.30082103  0.85000309  0.75377295     0.17890
N1252       N  0.26424077  0.83922551  0.70813667    -0.88830
H1253       H  0.23185172  0.87546282  0.83380553     0.35270
H1254       H  0.24498265  0.91051112  0.82577350     0.40360
H1255       H  0.25063617  0.82003592  0.70860463     0.39980
H1256       H  0.28637761  0.83125768  0.70880633     0.34870
C1257       C  0.21244658  0.74234748  0.64863735    -0.26860
C1258       C  0.22162899  0.77273451  0.65058753    -0.14930
C1259       C  0.25271104  0.77901030  0.65238857     0.35700
C1260       C  0.27308174  0.75524803  0.65465866    -0.26310
C1261       C  0.26449320  0.72509360  0.65089591    -0.15550
C1262       C  0.23372217  0.71839880  0.64782434     0.36780
N1263       N  0.22423752  0.68784643  0.64280437    -0.89800
H1264       H  0.18881366  0.73736672  0.64653074     0.17900
H1265       H  0.29651617  0.76081271  0.65744105     0.17890
N1266       N  0.26409867  0.80940529  0.65038702    -0.88830
H1267       H  0.20110907  0.68722150  0.63911391     0.35270
H1268       H  0.22810629  0.67589243  0.66279095     0.40360
H1269       H  0.26183869  0.81645345  0.62794887     0.39980
H1270       H  0.28708646  0.80997335  0.65490733     0.34870
C1271       C  0.21997472  0.68335700  0.94077990    -0.26860
C1272       C  0.18981312  0.69169541  0.93531800    -0.14930
C1273       C  0.18078552  0.72180077  0.94259285     0.35700
C1274       C  0.20156961  0.74212926  0.95449017    -0.26310
C1275       C  0.23122916  0.73345457  0.96062126    -0.15550
C1276       C  0.24074530  0.70394343  0.95295763     0.36780
N1277       N  0.27172487  0.69534228  0.95647418    -0.89800
H1278       H  0.22771539  0.66086161  0.93475000     0.17900
H1279       H  0.19419262  0.76497520  0.95927620     0.17890
N1280       N  0.15070107  0.73267033  0.93849370    -0.88830
H1281       H  0.27515552  0.67286539  0.94988571     0.35270
H1282       H  0.27724174  0.69626020  0.97925557     0.40360
H1283       H  0.13614360  0.71838826  0.95021348     0.39980
H1284       H  0.14541899  0.73276718  0.91558262     0.34870
C1285       C  0.06788282  0.72818114  0.83246349    -0.26860
C1286       C  0.06753875  0.69783146  0.82246381    -0.14930
C1287       C  0.05211616  0.69173231  0.79520370     0.35700
C1288       C  0.03788879  0.71551791  0.77916269    -0.26310
C1289       C  0.03824420  0.74562432  0.78950314    -0.15550
C1290       C  0.05390976  0.75185252  0.81614448     0.36780
N1291       N  0.05581837  0.78231163  0.82678238    -0.89800
H1292       H  0.07981485  0.73395590  0.85285648     0.17900
H1293       H  0.02641481  0.71040587  0.75834288     0.17890
N1294       N  0.05014520  0.66174696  0.78326579    -0.88830
H1295       H  0.07847831  0.78798477  0.82812216     0.35270
H1296       H  0.04682867  0.78300414  0.84850164     0.40360
H1297       H  0.04092744  0.64755282  0.79971784     0.39980
H1298       H  0.07167774  0.65405866  0.77787803     0.34870
C1299       C  0.12431628  0.72952279  0.74737204    -0.26860
C1300       C  0.13790619  0.73531555  0.77530278    -0.14930
C1301       C  0.15699322  0.76047293  0.77835780     0.35700
C1302       C  0.16098035  0.77990865  0.75374378    -0.26310
C1303       C  0.14656593  0.77461285  0.72628691    -0.15550
C1304       C  0.12877192  0.74879184  0.72265102     0.36780
N1305       N  0.11424568  0.74302363  0.69441578    -0.89800
H1306       H  0.11015506  0.70986152  0.74483204     0.17900
H1307       H  0.17462359  0.79996961  0.75623686     0.17890
N1308       N  0.17282691  0.76585734  0.80600873    -0.88830
H1309       H  0.10089327  0.72371299  0.69597898     0.35270
H1310       H  0.13095797  0.73813028  0.67865104     0.40360
H1311       H  0.15710296  0.77312204  0.82189561     0.39980
H1312       H  0.18790101  0.78370615  0.80339978     0.34870
C1313       C  0.22364967  0.76141997  0.86900452    -0.26860
C1314       C  0.23248277  0.73088809  0.87136488    -0.14930
C1315       C  0.26318024  0.72349244  0.87518083     0.35700
C1316       C  0.28392374  0.74692698  0.87761958    -0.26310
C1317       C  0.27501932  0.77745060  0.87500868    -0.15550
C1318       C  0.24453004  0.78467894  0.86968489     0.36780
N1319       N  0.23480302  0.81539330  0.86400111    -0.89800
H1320       H  0.20029956  0.76733970  0.86548888     0.17900
H1321       H  0.30732168  0.74116772  0.88112841     0.17890
N1322       N  0.27346612  0.69247660  0.87594022    -0.88830
H1323       H  0.21150151  0.81674986  0.86176676     0.35270
H1324       H  0.24361742  0.82182542  0.84312282     0.40360
H1325       H  0.26535005  0.68242395  0.89559781     0.39980
H1326       H  0.29683601  0.69129076  0.87734619     0.34870
C1327       C  0.21825277  0.63485215  0.74214625    -0.26860
C1328       C  0.22535097  0.64358623  0.77163495    -0.14930
C1329       C  0.25297287  0.65764168  0.77754924     0.35700
C1330       C  0.27349439  0.66102403  0.75418627    -0.26310
C1331       C  0.26729488  0.65034763  0.72519519    -0.15550
C1332       C  0.23943918  0.63706057  0.71897508     0.36780
N1333       N  0.23338545  0.62438433  0.68987876    -0.89800
H1334       H  0.19662817  0.62495642  0.73748910     0.17900
H1335       H  0.29486908  0.67151446  0.75881277     0.17890
N1336       N  0.25992311  0.66895760  0.80702897    -0.88830
H1337       H  0.21168439  0.61568792  0.68908175     0.35270
H1338       H  0.24802500  0.60600342  0.68686736     0.40360
H1339       H  0.24522101  0.68701745  0.81127888     0.39980
H1340       H  0.28152675  0.67792716  0.80760314     0.34870
C1341       C  0.45313518  0.71267840  0.74840127    -0.26860
C1342       C  0.46492520  0.73993577  0.73723179    -0.14930
C1343       C  0.46165067  0.74625279  0.70619482     0.35700
C1344       C  0.44668153  0.72569456  0.68719589    -0.26310
C1345       C  0.43497545  0.69810346  0.69812838    -0.15550
C1346       C  0.43884534  0.69152231  0.72934780     0.36780
N1347       N  0.42767438  0.66374593  0.74197841    -0.89800
H1348       H  0.45567158  0.70754848  0.77216612     0.17900
H1349       H  0.44378828  0.73176378  0.66368454     0.17890
N1350       N  0.47306353  0.77387788  0.69381700    -0.88830
H1351       H  0.43106314  0.66304456  0.76527683     0.35270
H1352       H  0.44050644  0.64600771  0.73305832     0.40360
H1353       H  0.45514137  0.78600552  0.68430475     0.39980
H1354       H  0.48785187  0.76832633  0.67642212     0.34870
C1355       C  0.45871416  0.77126122  0.80881626    -0.26860
C1356       C  0.46504541  0.78106165  0.77933041    -0.14930
C1357       C  0.45626047  0.81082054  0.77097516     0.35700
C1358       C  0.44175387  0.82996886  0.79207779    -0.26310
C1359       C  0.43538318  0.82039523  0.82180801    -0.15550
C1360       C  0.44435184  0.79028301  0.82995436     0.36780
N1361       N  0.43933621  0.77806958  0.85946694    -0.89800
H1362       H  0.46525753  0.74850725  0.81563881     0.17900
H1363       H  0.43485153  0.85249333  0.78490564     0.17890
N1364       N  0.46143282  0.82137774  0.74077943    -0.88830
H1365       H  0.41631766  0.77728770  0.86355355     0.35270
H1366       H  0.44954195  0.79213427  0.87522354     0.40360
H1367       H  0.48454407  0.82222669  0.73748797     0.39980
H1368       H  0.45330740  0.84352479  0.73793219     0.34870
C1369       C  0.54984176  0.68855016  0.72319772    -0.26860
C1370       C  0.56241270  0.69973522  0.69615884    -0.14930
C1371       C  0.55696775  0.73081589  0.68894880     0.35700
C1372       C  0.54139071  0.74977993  0.70939341    -0.26310
C1373       C  0.53027554  0.73893126  0.73697287    -0.15550
C1374       C  0.53365831  0.70760973  0.74319638     0.36780
N1375       N  0.52052319  0.69495417  0.76983033    -0.89800
H1376       H  0.55317508  0.66494836  0.72935835     0.17900
H1377       H  0.53732014  0.77317225  0.70322030     0.17890
N1378       N  0.56758757  0.74342080  0.66102701    -0.88830
H1379       H  0.53738830  0.68454147  0.78261165     0.35270
H1380       H  0.50578153  0.67796279  0.76320382     0.40360
H1381       H  0.55558701  0.73320234  0.64365918     0.39980
H1382       H  0.56274584  0.76663564  0.65964117     0.34870
C1383       C  0.55810746  0.82646128  0.79145219    -0.26860
C1384       C  0.55929005  0.81931452  0.82247452    -0.14930
C1385       C  0.54556555  0.79175306  0.83178719     0.35700
C1386       C  0.53151213  0.77281995  0.81051091    -0.26310
C1387       C  0.53053238  0.78009473  0.77958189    -0.15550
C1388       C  0.54449749  0.80719428  0.77021466     0.36780
N1389       N  0.54512351  0.81549259  0.73904637    -0.89800
H1390       H  0.56860402  0.84696967  0.78324218     0.17900
H1391       H  0.52120888  0.75204946  0.81829431     0.17890
N1392       N  0.54516614  0.78229087  0.86268293    -0.88830
H1393       H  0.56756092  0.81687519  0.73244199     0.35270
H1394       H  0.53557469  0.83711692  0.73671442     0.40360
H1395       H  0.53547556  0.79958842  0.87549842     0.39980
H1396       H  0.56717823  0.77844059  0.86986044     0.34870
C1397       C  0.61294989  0.74844675  0.78899381    -0.26860
C1398       C  0.63036502  0.77449645  0.78641852    -0.14930
C1399       C  0.65373546  0.77615218  0.76528491     0.35700
C1400       C  0.65705373  0.75284834  0.74482701    -0.26310
C1401       C  0.63791226  0.72812611  0.74530624    -0.15550
C1402       C  0.61702318  0.72462461  0.76883874     0.36780
N1403       N  0.59989981  0.69738387  0.77198220    -0.89800
H1404       H  0.59623547  0.74680879  0.80661951     0.17900
H1405       H  0.67452308  0.75409602  0.72839700     0.17890
N1406       N  0.67447703  0.80094901  0.76523017    -0.88830
H1407       H  0.58565419  0.69908722  0.79055949     0.35270
H1408       H  0.61488083  0.67977348  0.77725269     0.40360
H1409       H  0.66317050  0.81984057  0.75639418     0.39980
H1410       H  0.69228495  0.79669536  0.75050276     0.34870
C1411       C  0.95420821  0.80006589  0.70054927    -0.26860
C1412       C  0.93912661  0.82667785  0.70962719    -0.14930
C1413       C  0.94257541  0.83582468  0.74025476     0.35700
C1414       C  0.95996521  0.81768616  0.76018673    -0.26310
C1415       C  0.97311591  0.79016652  0.75112286    -0.15550
C1416       C  0.96980220  0.78136772  0.72087775     0.36780
N1417       N  0.98084855  0.75262067  0.71074206    -0.89800
H1418       H  0.95194872  0.79219375  0.67758128     0.17900
H1419       H  0.96247990  0.82485525  0.78329503     0.17890
N1420       N  0.92788050  0.86197345  0.75284165    -0.88830
H1421       H  0.99410295  0.75631070  0.69168842     0.35270
H1422       H  0.96246477  0.73990428  0.70378312     0.40360
H1423       H  0.91565922  0.87432673  0.73703638     0.39980
H1424       H  0.94454493  0.87650980  0.76056738     0.34870
C1425       C  0.73733652  0.86843336  0.72566106    -0.26860
C1426       C  0.76729118  0.86610127  0.73517845    -0.14930
C1427       C  0.77388578  0.86659802  0.76636473     0.35700
C1428       C  0.75039332  0.86830530  0.78698433    -0.26310
C1429       C  0.72041921  0.87019627  0.77754170    -0.15550
C1430       C  0.71386827  0.87110775  0.74639455     0.36780
N1431       N  0.68361767  0.87491845  0.73576507    -0.89800
H1432       H  0.73211866  0.86883807  0.70183179     0.17900
H1433       H  0.75577006  0.86799141  0.81077785     0.17890
N1434       N  0.80425958  0.86561719  0.77726512    -0.88830
H1435       H  0.68273159  0.87392730  0.71226053     0.35270
H1436       H  0.67658588  0.89678764  0.74160436     0.40360
H1437       H  0.81275492  0.84391774  0.77315056     0.39980
H1438       H  0.80501354  0.86843043  0.80061755     0.34870
C1439       C  0.75703902  0.77622615  0.66340131    -0.26860
C1440       C  0.78491085  0.76784861  0.65162429    -0.14930
C1441       C  0.78908254  0.73905240  0.63890199     0.35700
C1442       C  0.76427385  0.71978658  0.63666548    -0.26310
C1443       C  0.73559523  0.72941187  0.64622741    -0.15550
C1444       C  0.73220380  0.75803152  0.65991681     0.36780
N1445       N  0.70358452  0.76876230  0.67023194    -0.89800
H1446       H  0.75419396  0.79822401  0.67388574     0.17900
H1447       H  0.76718321  0.69763373  0.62663166     0.17890
N1448       N  0.81793716  0.72984688  0.62771702    -0.88830
H1449       H  0.70505322  0.79043803  0.67950657     0.35270
H1450       H  0.69760715  0.75427940  0.68770269     0.40360
H1451       H  0.82330183  0.74410185  0.60968320     0.39980
H1452       H  0.81702821  0.70787651  0.61908186     0.34870
C1453       C  0.94755659  0.72971602  0.83657214    -0.26860
C1454       C  0.93796034  0.70353809  0.82145903    -0.14930
C1455       C  0.94879435  0.69865347  0.79160730     0.35700
C1456       C  0.96560862  0.72076395  0.77709520    -0.26310
C1457       C  0.97326046  0.74774631  0.79121885    -0.15550
C1458       C  0.96551291  0.75167982  0.82181634     0.36780
N1459       N  0.97577459  0.77786523  0.83770932    -0.89800
H1460       H  0.93999871  0.73374756  0.85938034     0.17900
H1461       H  0.97277266  0.71657564  0.75426873     0.17890
N1462       N  0.94308822  0.67157677  0.77489620    -0.88830
H1463       H  0.96896512  0.77692217  0.86021727     0.35270
H1464       H  0.96527687  0.79689787  0.82819964     0.40360
H1465       H  0.92085947  0.67142715  0.76753875     0.39980
H1466       H  0.94783675  0.65262135  0.78841004     0.34870
C1467       C  0.73668480  0.72374926  0.86552144    -0.26860
C1468       C  0.76633009  0.73208036  0.87169126    -0.14930
C1469       C  0.77276084  0.76220450  0.88001860     0.35700
C1470       C  0.74947146  0.78331544  0.88121362    -0.26310
C1471       C  0.71992497  0.77512796  0.87472689    -0.15550
C1472       C  0.71338429  0.74505349  0.86653592     0.36780
N1473       N  0.68351106  0.73647369  0.85812788    -0.89800
H1474       H  0.73173501  0.70073973  0.85885469     0.17900
H1475       H  0.75454162  0.80643096  0.88735331     0.17890
N1476       N  0.80277204  0.77147273  0.88709331    -0.88830
H1477       H  0.68262063  0.71333275  0.85325527     0.35270
H1478       H  0.67817429  0.74795441  0.83810992     0.40360
H1479       H  0.80906166  0.76045136  0.90701860     0.39980
H1480       H  0.80352464  0.79469987  0.89158740     0.34870
C1481       C  0.83548033  0.77476526  0.75167901    -0.26860
C1482       C  0.85098295  0.76906870  0.72487914    -0.14930
C1483       C  0.86267760  0.73978395  0.71924158     0.35700
C1484       C  0.86059630  0.71748782  0.74184162    -0.26310
C1485       C  0.84719266  0.72421647  0.76955707    -0.15550
C1486       C  0.83350821  0.75263195  0.77406758     0.36780
N1487       N  0.81805531  0.75920928  0.80159165    -0.89800
H1488       H  0.82549614  0.79681520  0.75558274     0.17900
H1489       H  0.87098414  0.69544977  0.73852001     0.17890
N1490       N  0.87829581  0.73337288  0.69167766    -0.88830
H1491       H  0.79593719  0.76520126  0.79629932     0.35270
H1492       H  0.82818366  0.77796560  0.81149577     0.40360
H1493       H  0.86241709  0.73341062  0.67437623     0.39980
H1494       H  0.88748179  0.71147526  0.69228558     0.34870
C1495       C  0.74975036  0.65910299  0.77574124    -0.26860
C1496       C  0.77797309  0.64644632  0.76981282    -0.14930
C1497       C  0.78260914  0.62941927  0.74349718     0.35700
C1498       C  0.75836501  0.62471484  0.72392100    -0.26310
C1499       C  0.72976166  0.63659491  0.73040491    -0.15550
C1500       C  0.72552229  0.65425186  0.75658107     0.36780
N1501       N  0.69693075  0.66794218  0.76334717    -0.89800
H1502       H  0.74635225  0.67205470  0.79615738     0.17900
H1503       H  0.76173730  0.61161995  0.70362295     0.17890
N1504       N  0.81137467  0.61586107  0.73749962    -0.88830
H1505       H  0.69862504  0.68267942  0.78161053     0.35270
H1506       H  0.68266448  0.65059964  0.77035883     0.40360
H1507       H  0.82636446  0.63343881  0.73317154     0.39980
H1508       H  0.81055660  0.60283288  0.71793809     0.34870
C1509       C  0.72712736  0.54626795  0.70065720    -0.26860
C1510       C  0.71994012  0.54606584  0.73156817    -0.14930
C1511       C  0.69277944  0.56016193  0.74029229     0.35700
C1512       C  0.67267002  0.57136631  0.71846694    -0.26310
C1513       C  0.68013318  0.57255448  0.68773012    -0.15550
C1514       C  0.70799641  0.55950279  0.67891037     0.36780
N1515       N  0.71741780  0.55871562  0.64811046    -0.89800
H1516       H  0.74779013  0.53557769  0.69326894     0.17900
H1517       H  0.65174771  0.58127838  0.72614674     0.17890
N1518       N  0.68510419  0.56348380  0.77124901    -0.88830
H1519       H  0.72065071  0.58088613  0.64043102     0.35270
H1520       H  0.70065996  0.54849276  0.63534436     0.40360
H1521       H  0.66447086  0.55306959  0.77498104     0.39980
H1522       H  0.68252422  0.58663402  0.77563179     0.34870
C1523       C  0.78933765  0.54494215  0.76688822    -0.26860
C1524       C  0.75936034  0.54173031  0.77549025    -0.14930
C1525       C  0.75170496  0.54802816  0.80607115     0.35700
C1526       C  0.77318444  0.56067988  0.82552890    -0.26310
C1527       C  0.80289797  0.56481717  0.81631553    -0.15550
C1528       C  0.81128414  0.55463066  0.78721408     0.36780
N1529       N  0.84215850  0.55538664  0.77794104    -0.89800
H1530       H  0.79587979  0.53875897  0.74422242     0.17900
H1531       H  0.76633633  0.56798249  0.84775364     0.17890
N1532       N  0.72307785  0.54100230  0.81879278    -0.88830
H1533       H  0.84457154  0.54752824  0.75590337     0.35270
H1534       H  0.85406030  0.54026581  0.79180927     0.40360
H1535       H  0.71008527  0.52843057  0.80404190     0.39980
H1536       H  0.71200006  0.56136909  0.82366322     0.34870
C1537       C  0.73600914  0.46526440  0.69984904    -0.26860
C1538       C  0.72346125  0.48055076  0.72461440    -0.14930
C1539       C  0.69196485  0.48107786  0.72783963     0.35700
C1540       C  0.67395563  0.46677212  0.70643212    -0.26310
C1541       C  0.68642167  0.44930935  0.68318697    -0.15550
C1542       C  0.71785429  0.44930899  0.67930607     0.36780
N1543       N  0.73135542  0.43137492  0.65599059    -0.89800
H1544       H  0.76005765  0.46512026  0.69688296     0.17900
H1545       H  0.64991808  0.46637700  0.70991662     0.17890
N1546       N  0.67831692  0.49465872  0.75381371    -0.88830
H1547       H  0.75470362  0.43295733  0.65682313     0.35270
H1548       H  0.72465975  0.44073762  0.63533508     0.40360
H1549       H  0.68386510  0.48119150  0.77244299     0.39980
H1550       H  0.65495402  0.49437790  0.75213327     0.34870
C1551       C  0.71849414  0.24601317  0.64323251    -0.26860
C1552       C  0.72680158  0.27649458  0.64614307    -0.14930
C1553       C  0.75745705  0.28419485  0.64506122     0.35700
C1554       C  0.77890692  0.26106081  0.64328056    -0.26310
C1555       C  0.77062872  0.23046833  0.64158288    -0.15550
C1556       C  0.73991657  0.22293181  0.64066038     0.36780
N1557       N  0.73033742  0.19208980  0.63715486    -0.89800
H1558       H  0.69503872  0.23992202  0.64315110     0.17900
H1559       H  0.80236253  0.26716191  0.64323247     0.17890
N1560       N  0.76691465  0.31528630  0.64567694    -0.88830
H1561       H  0.70717883  0.19114892  0.63374751     0.35270
H1562       H  0.73442705  0.18077450  0.65750643     0.40360
H1563       H  0.76052663  0.32526384  0.62519106     0.39980
H1564       H  0.79027130  0.31669061  0.64662141     0.34870
C1565       C  0.78173898  0.45607672  0.81162638    -0.26860
C1566       C  0.80949891  0.44641547  0.79961386    -0.14930
C1567       C  0.81607224  0.45449663  0.76947383     0.35700
C1568       C  0.79447942  0.47115737  0.75232621    -0.26310
C1569       C  0.76591130  0.47825079  0.76423316    -0.15550
C1570       C  0.75963242  0.46972488  0.79396124     0.36780
N1571       N  0.73016467  0.47336608  0.80610861    -0.89800
H1572       H  0.77565881  0.45063615  0.83465240     0.17900
H1573       H  0.79979846  0.47825138  0.72958114     0.17890
N1574       N  0.84388406  0.44506197  0.75611757    -0.88830
H1575       H  0.73200871  0.48409748  0.82692321     0.35270
H1576       H  0.72167762  0.45175119  0.81036993     0.40360
H1577       H  0.86110577  0.45599516  0.76760257     0.39980
H1578       H  0.84497120  0.45240253  0.73370478     0.34870
C1579       C  0.82591990  0.23786611  0.74097428    -0.26860
C1580       C  0.85053956  0.21822088  0.74206491    -0.14930
C1581       C  0.87110872  0.21941709  0.76584497     0.35700
C1582       C  0.86904901  0.24351740  0.78608003    -0.26310
C1583       C  0.84588816  0.26525482  0.78337759    -0.15550
C1584       C  0.82261186  0.26061526  0.76226839     0.36780
N1585       N  0.79509546  0.27761843  0.76222296    -0.89800
H1586       H  0.80923736  0.23554155  0.72337357     0.17900
H1587       H  0.88633931  0.24611040  0.80299615     0.17890
N1588       N  0.89483095  0.19725729  0.76817149    -0.88830
H1589       H  0.79515170  0.29152763  0.74308372     0.35270
H1590       H  0.79284629  0.29089150  0.78144713     0.40360
H1591       H  0.88494918  0.17605697  0.77117902     0.39980
H1592       H  0.90724211  0.20079714  0.78769832     0.34870
C1593       C  0.75579898  0.34671643  0.76349501    -0.26860
C1594       C  0.75062689  0.36129615  0.79093081    -0.14930
C1595       C  0.72257812  0.37502796  0.79646028     0.35700
C1596       C  0.70118808  0.37600001  0.77299849    -0.26310
C1597       C  0.70793692  0.36343877  0.74471272    -0.15550
C1598       C  0.73486518  0.34742512  0.74058910     0.36780
N1599       N  0.74152116  0.33257214  0.71272781    -0.89800
H1600       H  0.77734268  0.33650715  0.75884954     0.17900
H1601       H  0.68005395  0.38781940  0.77621238     0.17890
N1602       N  0.71676935  0.38955989  0.82471953    -0.88830
H1603       H  0.74584874  0.30966001  0.71731365     0.35270
H1604       H  0.76108436  0.34199604  0.70390460     0.40360
H1605       H  0.71658210  0.37265818  0.84134416     0.39980
H1606       H  0.69537584  0.39942585  0.82464081     0.34870
C1607       C  0.76485838  0.14302389  0.78916547    -0.26860
C1608       C  0.73571842  0.15164432  0.78005817    -0.14930
C1609       C  0.73070690  0.16165066  0.75020158     0.35700
C1610       C  0.75450878  0.16119609  0.72998087    -0.26310
C1611       C  0.78297302  0.15050008  0.73854176    -0.15550
C1612       C  0.78871216  0.14275554  0.76875386     0.36780
N1613       N  0.81824085  0.13373623  0.77841719    -0.89800
H1614       H  0.76907620  0.13607892  0.81224367     0.17900
H1615       H  0.75050457  0.16830903  0.70693946     0.17890
N1616       N  0.70168084  0.17212930  0.74028972    -0.88830
H1617       H  0.81808372  0.12722919  0.80110540     0.35270
H1618       H  0.83177411  0.15291979  0.77714128     0.40360
H1619       H  0.68803343  0.15309902  0.73833411     0.39980
H1620       H  0.70289529  0.18164162  0.71868334     0.34870
C1621       C  0.76804173  0.26358376  0.84462015    -0.26860
C1622       C  0.76267178  0.29073605  0.85985706    -0.14930
C1623       C  0.73442652  0.29662607  0.87289032     0.35700
C1624       C  0.71259917  0.27396487  0.87218986    -0.26310
C1625       C  0.71901739  0.24587998  0.85904899    -0.15550
C1626       C  0.74631484  0.24115045  0.84376100     0.36780
N1627       N  0.75196328  0.21336146  0.82788963    -0.89800
H1628       H  0.78950675  0.25967224  0.83382035     0.17900
H1629       H  0.69140980  0.27743066  0.88362661     0.17890
N1630       N  0.72863562  0.32473237  0.88812151    -0.88830
H1631       H  0.77332148  0.21338603  0.81820821     0.35270
H1632       H  0.73667615  0.21254803  0.81006882     0.40360
H1633       H  0.74272494  0.32543786  0.90692640     0.39980
H1634       H  0.70667429  0.32539387  0.89629300     0.34870
C1635       C  0.66583479  0.24656057  0.76853282    -0.26860
C1636       C  0.64650510  0.24926815  0.79320055    -0.14930
C1637       C  0.62805268  0.27541035  0.79622282     0.35700
C1638       C  0.62820655  0.29727239  0.77326310    -0.26310
C1639       C  0.64533754  0.29281105  0.74731036    -0.15550
C1640       C  0.66533079  0.26805760  0.74537050     0.36780
N1641       N  0.68409318  0.26431970  0.71930941    -0.89800
H1642       H  0.68036186  0.22681675  0.76670856     0.17900
H1643       H  0.61295786  0.31650903  0.77455671     0.17890
N1644       N  0.60755509  0.27975653  0.82082911    -0.88830
H1645       H  0.69742117  0.24478349  0.72137740     0.35270
H1646       H  0.69869774  0.28268347  0.71854208     0.40360
H1647       H  0.60780741  0.26163674  0.83597304     0.39980
H1648       H  0.58597865  0.28054125  0.81173833     0.34870
C1649       C  0.80749629  0.06602681  0.72919714    -0.26860
C1650       C  0.80497737  0.06357333  0.69736837    -0.14930
C1651       C  0.78207119  0.04436965  0.68634352     0.35700
C1652       C  0.76288182  0.02929819  0.70707215    -0.26310
C1653       C  0.76598305  0.03231916  0.73868203    -0.15550
C1654       C  0.78848954  0.05134749  0.74947700     0.36780
N1655       N  0.79249221  0.05554905  0.78128346    -0.89800
H1656       H  0.82444827  0.08017685  0.73915392     0.17900
H1657       H  0.74545073  0.01486401  0.69835397     0.17890
N1658       N  0.77794753  0.03864342  0.65484143    -0.88830
H1659       H  0.80850124  0.07208364  0.78563470     0.35270
H1660       H  0.80134937  0.03536156  0.79003805     0.40360
H1661       H  0.79503490  0.04789760  0.64185415     0.39980
H1662       H  0.75779085  0.04897095  0.64824122     0.34870
C1663       C  0.70154180  0.04753136  0.77022893    -0.26860
C1664       C  0.72689292  0.03279018  0.78200272    -0.14930
C1665       C  0.73325939  0.03629821  0.81312289     0.35700
C1666       C  0.71503767  0.05554166  0.83102921    -0.26310
C1667       C  0.68992806  0.07100679  0.81909541    -0.15550
C1668       C  0.68291170  0.06616697  0.78811468     0.36780
N1669       N  0.65748864  0.08090529  0.77425308    -0.89800
H1670       H  0.69647106  0.04481250  0.74653034     0.17900
H1671       H  0.72095623  0.05898145  0.85440751     0.17890
N1672       N  0.75903755  0.02167009  0.82629994    -0.88830
H1673       H  0.65384326  0.07250340  0.75260621     0.35270
H1674       H  0.66281638  0.10375431  0.77135877     0.40360
H1675       H  0.75506475  0.99847645  0.82692157     0.39980
H1676       H  0.76175225  0.02826810  0.84869664     0.34870
C1677       C  0.69325727  0.97100454  0.77568019    -0.26860
C1678       C  0.72424465  0.96640394  0.77989111    -0.14930
C1679       C  0.73361342  0.94819067  0.80447031     0.35700
C1680       C  0.71229049  0.93683991  0.82504596    -0.26310
C1681       C  0.68116559  0.94071193  0.82065866    -0.15550
C1682       C  0.67171548  0.95895793  0.79572620     0.36780
N1683       N  0.64077889  0.96680208  0.79045570    -0.89800
H1684       H  0.68567241  0.98496369  0.75694634     0.17900
H1685       H  0.72020962  0.92348395  0.84404460     0.17890
N1686       N  0.76489255  0.94187431  0.80909700    -0.88830
H1687       H  0.63929107  0.99046445  0.78914510     0.35270
H1688       H  0.62752848  0.96116139  0.80892608     0.40360
H1689       H  0.77225286  0.92861083  0.79111944     0.39980
H1690       H  0.76822569  0.92880847  0.82857222     0.34870
C1691       C  0.81701287  0.95164452  0.72103354    -0.26860
C1692       C  0.80498189  0.93782594  0.69524709    -0.14930
C1693       C  0.77328985  0.93995962  0.69114090     0.35700
C1694       C  0.75497426  0.95288955  0.71360084    -0.26310
C1695       C  0.76708385  0.96629833  0.73939936    -0.15550
C1696       C  0.79871802  0.96655865  0.74245840     0.36780
N1697       N  0.81238027  0.98270298  0.76679137    -0.89800
H1698       H  0.84103117  0.95098154  0.72452846     0.17900
H1699       H  0.73094576  0.95385274  0.71009425     0.17890
N1700       N  0.75877797  0.93021661  0.66414989    -0.88830
H1701       H  0.83573164  0.98201361  0.76499983     0.35270
H1702       H  0.80709606  0.97177708  0.78694679     0.40360
H1703       H  0.76173755  0.90694165  0.66151137     0.39980
H1704       H  0.76824824  0.94163347  0.64582702     0.34870
C1705       C  0.72442919  0.70603218  0.53581037    -0.26860
C1706       C  0.72297003  0.73782435  0.53860354    -0.14930
C1707       C  0.70107629  0.75011311  0.55792092     0.35700
C1708       C  0.68117365  0.73089067  0.57344695    -0.26310
C1709       C  0.68217718  0.69904627  0.57026327    -0.15550
C1710       C  0.70365467  0.68670329  0.55001105     0.36780
N1711       N  0.70485908  0.65493818  0.54281690    -0.89800
H1712       H  0.74148524  0.69597865  0.52169584     0.17900
H1713       H  0.66530878  0.74113265  0.58887354     0.17890
N1714       N  0.69885380  0.78221644  0.56193715    -0.88830
H1715       H  0.70572286  0.65320121  0.51934361     0.35270
H1716       H  0.68465956  0.64457002  0.54827249     0.40360
H1717       H  0.70180290  0.78676945  0.58482636     0.39980
H1718       H  0.67722381  0.78917785  0.55582192     0.34870
C1719       C  0.75832559  0.80991274  0.53944089    -0.26860
C1720       C  0.76460545  0.77865951  0.53634586    -0.14930
C1721       C  0.79224751  0.76732760  0.54678724     0.35700
C1722       C  0.81283823  0.78707955  0.56004344    -0.26310
C1723       C  0.80572410  0.81777707  0.56614724    -0.15550
C1724       C  0.77822504  0.82943103  0.55491827     0.36780
N1725       N  0.77013702  0.86056908  0.55996228    -0.89800
H1726       H  0.73747654  0.81892027  0.53048176     0.17900
H1727       H  0.83408011  0.77763382  0.56749522     0.17890
N1728       N  0.79937695  0.73560505  0.54382676    -0.88830
H1729       H  0.74904063  0.86538683  0.55075476     0.35270
H1730       H  0.78547844  0.87396801  0.54822349     0.40360
H1731       H  0.78481140  0.72359484  0.55784569     0.39980
H1732       H  0.82103185  0.73092650  0.55167329     0.34870
C1733       C  0.71687349  0.68456911  0.44836093    -0.26860
C1734       C  0.68558209  0.68956762  0.44764266    -0.14930
C1735       C  0.67444518  0.71698148  0.46038359     0.35700
C1736       C  0.69428589  0.73801904  0.47300892    -0.26310
C1737       C  0.72544879  0.73324209  0.47285759    -0.15550
C1738       C  0.73681878  0.70625360  0.46010129     0.36780
N1739       N  0.76861014  0.70076071  0.45933508    -0.89800
H1740       H  0.72605941  0.66401178  0.43870531     0.17900
H1741       H  0.68523837  0.75838335  0.48323086     0.17890
N1742       N  0.64310716  0.72415350  0.46132098    -0.88830
H1743       H  0.77342482  0.68016676  0.44878617     0.35270
H1744       H  0.77618736  0.69856883  0.48151672     0.40360
H1745       H  0.63187570  0.70627314  0.47183146     0.39980
H1746       H  0.63517626  0.72698504  0.43933212     0.34870
C1747       C  0.63235878  0.74361049  0.23336536    -0.26860
C1748       C  0.63578967  0.77387475  0.24218397    -0.14930
C1749       C  0.63686502  0.78103470  0.27309012     0.35700
C1750       C  0.63393098  0.75780566  0.29432428    -0.26310
C1751       C  0.63100462  0.72743308  0.28553430    -0.15550
C1752       C  0.62985232  0.72028779  0.25456550     0.36780
N1753       N  0.62657808  0.68953319  0.24454386    -0.89800
H1754       H  0.63143778  0.73797428  0.20967951     0.17900
H1755       H  0.63505177  0.76353056  0.31797899     0.17890
N1756       N  0.64189368  0.81156724  0.28294741    -0.88830
H1757       H  0.62769458  0.68829045  0.22106257     0.35270
H1758       H  0.60507678  0.68252415  0.25050084     0.40360
H1759       H  0.66374550  0.81715783  0.27670521     0.39980
H1760       H  0.64113819  0.81293020  0.30643716     0.34870
C1761       C  0.93951817  0.78209049  0.33596480    -0.26860
C1762       C  0.93853448  0.81305925  0.32760326    -0.14930
C1763       C  0.95447144  0.82174459  0.30126866     0.35700
C1764       C  0.96955243  0.79969952  0.28393743    -0.26310
C1765       C  0.96992774  0.76878243  0.29212717    -0.15550
C1766       C  0.95487029  0.76009455  0.31868266     0.36780
N1767       N  0.95538563  0.72894710  0.32828786    -0.89800
H1768       H  0.92770235  0.77469943  0.35596487     0.17900
H1769       H  0.98089365  0.80680925  0.26356930     0.17890
N1770       N  0.95575670  0.85264606  0.29125858    -0.88830
H1771       H  0.94209494  0.72593973  0.34743719     0.35270
H1772       H  0.97735299  0.72382885  0.33487179     0.40360
H1773       H  0.96408047  0.86581691  0.30881333     0.39980
H1774       H  0.93418136  0.86013180  0.28565103     0.34870
C1775       C  0.77967681  0.81822713  0.44114136    -0.26860
C1776       C  0.81061458  0.81107460  0.44162746    -0.14930
C1777       C  0.81972845  0.78452365  0.45762476     0.35700
C1778       C  0.79834920  0.76648900  0.47242715    -0.26310
C1779       C  0.76758821  0.77361501  0.47157705    -0.15550
C1780       C  0.75822001  0.79970003  0.45552151     0.36780
N1781       N  0.72685995  0.80720526  0.45371009    -0.89800
H1782       H  0.77194899  0.83801955  0.42870700     0.17900
H1783       H  0.80592902  0.74654155  0.48465023     0.17890
N1784       N  0.85049946  0.77527511  0.45966033    -0.88830
H1785       H  0.72349013  0.82676106  0.44064578     0.35270
H1786       H  0.71946880  0.81232001  0.47543742     0.40360
H1787       H  0.86293653  0.79328710  0.46815022     0.39980
H1788       H  0.85822270  0.76976438  0.43816563     0.34870
C1789       C  0.74979992  0.88036307  0.28275424    -0.26860
C1790       C  0.77853191  0.87005597  0.27554354    -0.14930
C1791       C  0.78422229  0.85801007  0.24659914     0.35700
C1792       C  0.76057415  0.85610398  0.22582395    -0.26310
C1793       C  0.73146232  0.86547452  0.23353620    -0.15550
C1794       C  0.72608537  0.87757546  0.26266963     0.36780
N1795       N  0.69660266  0.88674381  0.27228247    -0.89800
H1796       H  0.74547401  0.88980991  0.30481880     0.17900
H1797       H  0.76486978  0.84685184  0.20368723     0.17890
N1798       N  0.81348810  0.84668050  0.23872098    -0.88830
H1799       H  0.69734010  0.89774361  0.29305546     0.35270
H1800       H  0.68428715  0.86704130  0.27597811     0.40360
H1801       H  0.82760423  0.86535848  0.23657644     0.39980
H1802       H  0.81309407  0.83638698  0.21757897     0.34870
C1803       C  0.74323145  0.78026873  0.36608489    -0.26860
C1804       C  0.77292851  0.77137508  0.37217900    -0.14930
C1805       C  0.77912842  0.74153146  0.38232529     0.35700
C1806       C  0.75550235  0.72136819  0.38577481    -0.26310
C1807       C  0.72587265  0.73009532  0.37929746    -0.15550
C1808       C  0.71955804  0.76009783  0.36971970     0.36780
N1809       N  0.68945235  0.76987227  0.36286470    -0.89800
H1810       H  0.73833976  0.80318417  0.35846075     0.17900
H1811       H  0.76045795  0.69839923  0.39316622     0.17890
N1812       N  0.80915318  0.73172326  0.38948696    -0.88830
H1813       H  0.68923372  0.79181629  0.35376999     0.35270
H1814       H  0.67781740  0.77120913  0.38325013     0.40360
H1815       H  0.82070350  0.72939250  0.36914177     0.39980
H1816       H  0.80916332  0.71016287  0.39945149     0.34870
C1817       C  0.94787508  0.67692088  0.23633010    -0.26860
C1818       C  0.93742696  0.68999791  0.20919558    -0.14930
C1819       C  0.94528638  0.72082812  0.20327064     0.35700
C1820       C  0.95932957  0.73822188  0.22550802    -0.26310
C1821       C  0.96945880  0.72550166  0.25255694    -0.15550
C1822       C  0.96488518  0.69385567  0.25734838     0.36780
N1823       N  0.97734116  0.67801296  0.28284857    -0.89800
H1824       H  0.94272423  0.65347558  0.24138381     0.17900
H1825       H  0.96396606  0.76189273  0.22097481     0.17890
N1826       N  0.93882536  0.73476754  0.17454682    -0.88830
H1827       H  0.95959322  0.67146451  0.29672333     0.35270
H1828       H  0.99128354  0.69196149  0.29537884     0.40360
H1829       H  0.95165384  0.72343215  0.15838349     0.39980
H1830       H  0.94555041  0.75742077  0.17403362     0.34870
C1831       C  0.75690009  0.73786893  0.17598556    -0.26860
C1832       C  0.78312404  0.74358549  0.15970384    -0.14930
C1833       C  0.78814848  0.77262652  0.14731315     0.35700
C1834       C  0.76521861  0.79459742  0.14907717    -0.26310
C1835       C  0.73785328  0.78761338  0.16288540    -0.15550
C1836       C  0.73420434  0.75961460  0.17762312     0.36780
N1837       N  0.70709301  0.75295065  0.19355396    -0.89800
H1838       H  0.75350510  0.71589977  0.18645098     0.17900
H1839       H  0.76790383  0.81637005  0.13797159     0.17890
N1840       N  0.81533471  0.77892487  0.13120411    -0.88830
H1841       H  0.71265246  0.74776761  0.21589655     0.35270
H1842       H  0.69758931  0.73367688  0.18400240     0.40360
H1843       H  0.83282874  0.77872287  0.14687422     0.39980
H1844       H  0.81459695  0.80081982  0.12201575     0.34870
C1845       C  0.87443589  0.76284629  0.22321552    -0.26860
C1846       C  0.85499456  0.73873468  0.22821612    -0.14930
C1847       C  0.84065708  0.73508131  0.25612633     0.35700
C1848       C  0.84792862  0.75445296  0.27955746    -0.26310
C1849       C  0.86881541  0.77769722  0.27540371    -0.15550
C1850       C  0.88199667  0.78230466  0.24659800     0.36780
N1851       N  0.90351979  0.80558192  0.24023346    -0.89800
H1852       H  0.88559519  0.76520232  0.20165065     0.17900
H1853       H  0.83668926  0.75175519  0.30104515     0.17890
N1854       N  0.81927084  0.71122827  0.26057824    -0.88830
H1855       H  0.92287916  0.79502167  0.23205144     0.35270
H1856       H  0.91036353  0.81647643  0.25966263     0.40360
H1857       H  0.80116746  0.71554518  0.24615409     0.39980
H1858       H  0.81079221  0.71157281  0.28252313     0.34870
C1859       C  0.77735047  0.63788992  0.26898982    -0.26860
C1860       C  0.76764535  0.64121170  0.23908047    -0.14930
C1861       C  0.73665869  0.64088439  0.23249175     0.35700
C1862       C  0.71634410  0.63653806  0.25596289    -0.26310
C1863       C  0.72608461  0.63357240  0.28592103    -0.15550
C1864       C  0.75708278  0.63398511  0.29246938     0.36780
N1865       N  0.76807493  0.63067503  0.32280410    -0.89800
H1866       H  0.80104470  0.63811034  0.27428152     0.17900
H1867       H  0.69262125  0.63651477  0.25077519     0.17890
N1868       N  0.72573282  0.64511999  0.20224068    -0.88830
H1869       H  0.79133360  0.63319958  0.32366384     0.35270
H1870       H  0.76378364  0.60843187  0.32970219     0.40360
H1871       H  0.72988305  0.66759795  0.19605467     0.39980
H1872       H  0.70247880  0.64257325  0.20132030     0.34870
C1873       C  0.70363220  0.81744287  0.05105922    -0.26860
C1874       C  0.68265848  0.80427498  0.07066031    -0.14930
C1875       C  0.67957801  0.77211075  0.07026320     0.35700
C1876       C  0.69760663  0.75467866  0.05073077    -0.26310
C1877       C  0.71918267  0.76795598  0.03193726    -0.15550
C1878       C  0.72208837  0.79983417  0.03230163     0.36780
N1879       N  0.74498994  0.81453872  0.01520211    -0.89800
H1880       H  0.70715825  0.84173061  0.05171287     0.17900
H1881       H  0.69538323  0.73021804  0.05094931     0.17890
N1882       N  0.65992688  0.75586616  0.09019362    -0.88830
H1883       H  0.75905945  0.82568654  0.03026709     0.35270
H1884       H  0.73473891  0.83130493  0.00189100     0.40360
H1885       H  0.64711824  0.77011551  0.10366815     0.39980
H1886       H  0.67328031  0.74274538  0.10472282     0.34870
C1887       C  0.75762857  0.69656711  0.03436661    -0.26860
C1888       C  0.76148968  0.72817680  0.03142359    -0.14930
C1889       C  0.78572005  0.74164755  0.04633900     0.35700
C1890       C  0.80535684  0.72365556  0.06359471    -0.26310
C1891       C  0.80094606  0.69224436  0.06830553    -0.15550
C1892       C  0.77669286  0.67862325  0.05294158     0.36780
N1893       N  0.77035186  0.64702560  0.05621028    -0.89800
H1894       H  0.73894590  0.68596184  0.02314988     0.17900
H1895       H  0.82367433  0.73502843  0.07466794     0.17890
N1896       N  0.78988833  0.77390357  0.04480189    -0.88830
H1897       H  0.76546802  0.64252672  0.07880756     0.35270
H1898       H  0.78947022  0.63466142  0.05009265     0.40360
H1899       H  0.79570045  0.77952540  0.02271966     0.39980
H1900       H  0.80780628  0.78055745  0.05834025     0.34870
C1901       C  0.79289782  0.73600081  0.96635560    -0.26860
C1902       C  0.76225984  0.72872706  0.96578147    -0.14930
C1903       C  0.75389951  0.70170572  0.95125507     0.35700
C1904       C  0.77594378  0.68297430  0.93765660    -0.26310
C1905       C  0.80665420  0.69048296  0.93751727    -0.15550
C1906       C  0.81492617  0.71748721  0.95266661     0.36780
N1907       N  0.84547384  0.72688347  0.95479905    -0.89800
H1908       H  0.79987243  0.75655033  0.97733524     0.17900
H1909       H  0.76878821  0.66264119  0.92628385     0.17890
N1910       N  0.72296654  0.69317776  0.95038341    -0.88830
H1911       H  0.85341136  0.73207465  0.93327256     0.35270
H1912       H  0.85817621  0.70906323  0.96401494     0.40360
H1913       H  0.71659451  0.68784923  0.97241921     0.39980
H1914       H  0.72023165  0.67342025  0.93783925     0.34870
C1915       C  0.73150364  0.79567539  0.95231050    -0.26860
C1916       C  0.71909113  0.76987490  0.96595186    -0.14930
C1917       C  0.68742555  0.76805930  0.96749480     0.35700
C1918       C  0.66925285  0.79134822  0.95472128    -0.26310
C1919       C  0.68161744  0.81752840  0.94149552    -0.15550
C1920       C  0.71338792  0.82004609  0.94159347     0.36780
N1921       N  0.72739342  0.84714701  0.93052141    -0.89800
H1922       H  0.75567636  0.79776164  0.95189425     0.17900
H1923       H  0.64512486  0.78896545  0.95513185     0.17890
N1924       N  0.67368600  0.74275102  0.98240607    -0.88830
H1925       H  0.75073292  0.84499592  0.93129524     0.35270
H1926       H  0.72174623  0.86466780  0.94526774     0.40360
H1927       H  0.67691023  0.72382179  0.96881691     0.39980
H1928       H  0.65050189  0.74601501  0.98386313     0.34870
C1929       C  0.70427131  0.26070889  0.56253163    -0.26860
C1930       C  0.72889746  0.27326261  0.54738468    -0.14930
C1931       C  0.73224853  0.30503405  0.54808792     0.35700
C1932       C  0.71072828  0.32349318  0.56270595    -0.26310
C1933       C  0.68514368  0.31117379  0.57671846    -0.15550
C1934       C  0.68203740  0.27909102  0.57629487     0.36780
N1935       N  0.65669557  0.26497326  0.59036718    -0.89800
H1936       H  0.70153690  0.23638698  0.56257649     0.17900
H1937       H  0.71434553  0.34773850  0.56331385     0.17890
N1938       N  0.75793291  0.31867655  0.53448565    -0.88830
H1939       H  0.65865371  0.24134294  0.58958886     0.35270
H1940       H  0.63777531  0.27074716  0.57759376     0.40360
H1941       H  0.76959168  0.33021104  0.55124495     0.39980
H1942       H  0.75040737  0.33471735  0.51869366     0.34870
C1943       C  0.79876959  0.24192928  0.55407703    -0.26860
C1944       C  0.77055790  0.23133234  0.54521772    -0.14930
C1945       C  0.76422450  0.20016189  0.55007719     0.35700
C1946       C  0.78568392  0.18105580  0.56427437    -0.26310
C1947       C  0.81401582  0.19160733  0.57341822    -0.15550
C1948       C  0.82061418  0.22260563  0.56748725     0.36780
N1949       N  0.84932570  0.23472103  0.57540115    -0.89800
H1950       H  0.80403228  0.26553160  0.54990524     0.17900
H1951       H  0.77984381  0.15761238  0.56845961     0.17890
N1952       N  0.73647058  0.18685575  0.54078714    -0.88830
H1953       H  0.85016368  0.25794701  0.57059772     0.35270
H1954       H  0.86529255  0.22434600  0.56156237     0.40360
H1955       H  0.72275961  0.20243909  0.52946663     0.39980
H1956       H  0.72500954  0.18018176  0.56022918     0.34870
C1957       C  0.78672178  0.94561593  0.34126529    -0.26860
C1958       C  0.81318687  0.93563371  0.32688018    -0.14930
C1959       C  0.81539349  0.93984115  0.29527198     0.35700
C1960       C  0.79073702  0.95179276  0.27898485    -0.26310
C1961       C  0.76479888  0.96244930  0.29349943    -0.15550
C1962       C  0.76288712  0.95932953  0.32505316     0.36780
N1963       N  0.73674687  0.97033969  0.34053264    -0.89800
H1964       H  0.78450869  0.94261652  0.36538934     0.17900
H1965       H  0.79269946  0.95450790  0.25490854     0.17890
N1966       N  0.84235029  0.93149280  0.27956271    -0.88830
H1967       H  0.73883762  0.96674101  0.36373912     0.35270
H1968       H  0.71854764  0.95747334  0.33339575     0.40360
H1969       H  0.85916730  0.94623723  0.28651374     0.39980
H1970       H  0.83983365  0.93484576  0.25635819     0.34870
C1971       C  0.70923952  0.95452040  0.20145217    -0.26860
C1972       C  0.68092005  0.94306571  0.20969310    -0.14930
C1973       C  0.67215518  0.94614464  0.24041601     0.35700
C1974       C  0.69288047  0.95752890  0.26163953    -0.26310
C1975       C  0.72199010  0.96623885  0.25335959    -0.15550
C1976       C  0.72984698  0.96501780  0.22271776     0.36780
N1977       N  0.75910642  0.97373066  0.21291705    -0.89800
H1978       H  0.71662634  0.95306668  0.17824262     0.17900
H1979       H  0.68612243  0.95956737  0.28497122     0.17890
N1980       N  0.64329129  0.93704053  0.25142301    -0.88830
H1981       H  0.75668331  0.99006394  0.19589463     0.35270
H1982       H  0.76938955  0.95475368  0.20325197     0.40360
H1983       H  0.62849211  0.93319555  0.23380221     0.39980
H1984       H  0.63396600  0.95555934  0.26276719     0.34870
C1985       C  0.67624689  0.05149005  0.23709178    -0.26860
C1986       C  0.69073286  0.06002232  0.21022641    -0.14930
C1987       C  0.72129973  0.05151911  0.20640703     0.35700
C1988       C  0.73732155  0.03888543  0.23047753    -0.26310
C1989       C  0.72323266  0.03055147  0.25721981    -0.15550
C1990       C  0.69209900  0.03598315  0.26033082     0.36780
N1991       N  0.67682236  0.02592345  0.28698126    -0.89800
H1992       H  0.65297977  0.05779897  0.24041485     0.17900
H1993       H  0.76090763  0.03401298  0.22766770     0.17890
N1994       N  0.73632825  0.05635553  0.17810750    -0.88830
H1995       H  0.65392403  0.03090611  0.28540756     0.35270
H1996       H  0.68501751  0.03839555  0.30505973     0.40360
H1997       H  0.72595360  0.04262834  0.16215990     0.39980
H1998       H  0.75874889  0.04933306  0.17923162     0.34870
C1999       C  0.74354277  0.30123835  0.46414738    -0.26860
C2000       C  0.73027769  0.27783514  0.48106646    -0.14930
C2001       C  0.69870122  0.27653443  0.48164219     0.35700
C2002       C  0.68134408  0.29817460  0.46568593    -0.26310
C2003       C  0.69435721  0.32129064  0.44805240    -0.15550
C2004       C  0.72627609  0.32298678  0.44791885     0.36780
N2005       N  0.74226622  0.34510557  0.43042479    -0.89800
H2006       H  0.76776473  0.30255915  0.46334293     0.17900
H2007       H  0.65721979  0.29549805  0.46534624     0.17890
N2008       N  0.68398610  0.25212252  0.49685704    -0.88830
H2009       H  0.75492423  0.35798100  0.44537858     0.35270
H2010       H  0.72788849  0.36031928  0.41956362     0.40360
H2011       H  0.67168146  0.24012527  0.48091084     0.39980
H2012       H  0.66864669  0.26150802  0.51201661     0.34870
C2013       C  0.63649631  0.24641596  0.29221047    -0.26860
C2014       C  0.64648122  0.27537412  0.28441121    -0.14930
C2015       C  0.65689152  0.28127026  0.25496602     0.35700
C2016       C  0.65559860  0.25830003  0.23349723    -0.26310
C2017       C  0.64476089  0.22944236  0.24094791    -0.15550
C2018       C  0.63630968  0.22302731  0.27108811     0.36780
N2019       N  0.62709173  0.19316471  0.28021249    -0.89800
H2020       H  0.62853001  0.24209439  0.31488130     0.17900
H2021       H  0.66328561  0.26299934  0.21080641     0.17890
N2022       N  0.66932280  0.31025259  0.24708370    -0.88830
H2023       H  0.61991031  0.19313990  0.30262547     0.35270
H2024       H  0.64599526  0.17906742  0.27989660     0.40360
H2025       H  0.65149270  0.32551286  0.24422195     0.39980
H2026       H  0.68004264  0.30919135  0.22617517     0.34870
C2027       C  0.96403422  0.21873869  0.28317730    -0.26860
C2028       C  0.96234280  0.24987239  0.28915773    -0.14930
C2029       C  0.94843003  0.25922364  0.31617278     0.35700
C2030       C  0.93582118  0.23727321  0.33593222    -0.26310
C2031       C  0.93788957  0.20597678  0.32978375    -0.15550
C2032       C  0.95379710  0.19694482  0.30361959     0.36780
N2033       N  0.95942743  0.16561157  0.29664881    -0.89800
H2034       H  0.97401815  0.21092503  0.26248268     0.17900
H2035       H  0.92292263  0.24472540  0.35520988     0.17890
N2036       N  0.94624554  0.29097054  0.32290976    -0.88830
H2037       H  0.94530592  0.15963442  0.27889345     0.35270
H2038       H  0.95503664  0.15143377  0.31503161     0.40360
H2039       H  0.96800622  0.29898369  0.32592866     0.39980
H2040       H  0.93503771  0.29420755  0.34331799     0.34870
C2041       C  0.77887678  0.18797238  0.45117826    -0.26860
C2042       C  0.80966217  0.19420838  0.44795034    -0.14930
C2043       C  0.82072881  0.22084771  0.46178478     0.35700
C2044       C  0.80094051  0.24040287  0.47761060    -0.26310
C2045       C  0.77015224  0.23438991  0.47992304    -0.15550
C2046       C  0.75913370  0.20780974  0.46647773     0.36780
N2047       N  0.72775677  0.20107971  0.46817115    -0.89800
H2048       H  0.76968321  0.16815641  0.44041171     0.17900
H2049       H  0.80954933  0.26064883  0.48810124     0.17890
N2050       N  0.85188781  0.22839048  0.45934920    -0.88830
H2051       H  0.72336731  0.18004208  0.45848040     0.35270
H2052       H  0.71648179  0.21724041  0.45497072     0.40360
H2053       H  0.86409442  0.21165759  0.47094448     0.39980
H2054       H  0.85623228  0.24890389  0.47011107     0.34870
C2055       C  0.81428135  0.04655928  0.30749624    -0.26860
C2056       C  0.80477967  0.06275522  0.33296953    -0.14930
C2057       C  0.77436474  0.06069441  0.34176479     0.35700
C2058       C  0.75431143  0.04322874  0.32445432    -0.26310
C2059       C  0.76375763  0.02825533  0.29823423    -0.15550
C2060       C  0.79417330  0.03012270  0.28982231     0.36780
N2061       N  0.80458747  0.01692012  0.26234500    -0.89800
H2062       H  0.83727223  0.04844365  0.29988674     0.17900
H2063       H  0.73101405  0.04199426  0.33101165     0.17890
N2064       N  0.76341646  0.07801603  0.36680466    -0.88830
H2065       H  0.82285295  0.00278305  0.26744470     0.35270
H2066       H  0.81255750  0.03440334  0.24857291     0.40360
H2067       H  0.77339087  0.06908984  0.38628362     0.39980
H2068       H  0.74031325  0.07521255  0.36933799     0.34870
C2069       C  0.73948353  0.22518022  0.35566735    -0.26860
C2070       C  0.76744800  0.23327427  0.36762971    -0.14930
C2071       C  0.77227395  0.26321527  0.37713022     0.35700
C2072       C  0.74930351  0.28444837  0.37377679    -0.26310
C2073       C  0.72107262  0.27645401  0.36223366    -0.15550
C2074       C  0.71624230  0.24645307  0.35299867     0.36780
N2075       N  0.68808648  0.23736661  0.34077708    -0.89800
H2076       H  0.73556893  0.20222711  0.34815371     0.17900
H2077       H  0.75351883  0.30733573  0.38120043     0.17890
N2078       N  0.80014579  0.27193867  0.39075460    -0.88830
H2079       H  0.67971379  0.21982798  0.35422152     0.35270
H2080       H  0.69199293  0.22868825  0.31926751     0.40360
H2081       H  0.80190844  0.26041192  0.41133915     0.39980
H2082       H  0.80011030  0.29506280  0.39581479     0.34870
C2083       C  0.75753393  0.16366296  0.28004111    -0.26860
C2084       C  0.78569648  0.15080594  0.27413701    -0.14930
C2085       C  0.79207067  0.13918889  0.24537854     0.35700
C2086       C  0.76946518  0.13922538  0.22343116    -0.26310
C2087       C  0.74062738  0.15001375  0.23030843    -0.15550
C2088       C  0.73493220  0.16318910  0.25849781     0.36780
N2089       N  0.70603825  0.17561246  0.26555904    -0.89800
H2090       H  0.75264001  0.17309668  0.30199456     0.17900
H2091       H  0.77392433  0.12908655  0.20170303     0.17890
N2092       N  0.82053325  0.12541539  0.23907916    -0.88830
H2093       H  0.70866963  0.19845829  0.27102566     0.35270
H2094       H  0.69803541  0.16429351  0.28465892     0.40360
H2095       H  0.82935836  0.13601135  0.21995469     0.39980
H2096       H  0.81690494  0.10269005  0.23371985     0.34870
C2097       C  0.95794725  0.32201400  0.24972881    -0.26860
C2098       C  0.95981077  0.29046045  0.24604679    -0.14930
C2099       C  0.94804310  0.27786730  0.21937260     0.35700
C2100       C  0.93629931  0.29690144  0.19670193    -0.26310
C2101       C  0.93287829  0.32840188  0.20088273    -0.15550
C2102       C  0.94416905  0.34090438  0.22803416     0.36780
N2103       N  0.94259365  0.37271394  0.23417052    -0.89800
H2104       H  0.96727478  0.33210008  0.26980822     0.17900
H2105       H  0.92786110  0.28650123  0.17640216     0.17890
N2106       N  0.94671110  0.24578380  0.21495443    -0.88830
H2107       H  0.92016007  0.37920522  0.23653561     0.35270
H2108       H  0.95214267  0.38452962  0.21613403     0.40360
H2109       H  0.96813660  0.23648428  0.21680154     0.39980
H2110       H  0.93355949  0.23650999  0.23205154     0.34870
C2111       C  0.74049299  0.37857503  0.22830240    -0.26860
C2112       C  0.76634179  0.36188383  0.23542340    -0.14930
C2113       C  0.76895320  0.34680420  0.26339389     0.35700
C2114       C  0.74763545  0.35277093  0.28533915    -0.26310
C2115       C  0.72217724  0.37039407  0.27860538    -0.15550
C2116       C  0.71754409  0.38168357  0.24915292     0.36780
N2117       N  0.68991461  0.39621970  0.24037994    -0.89800
H2118       H  0.73820565  0.38933877  0.20637493     0.17900
H2119       H  0.75007688  0.34196775  0.30724329     0.17890
N2120       N  0.79196975  0.32463559  0.26977778    -0.88830
H2121       H  0.69137172  0.40413033  0.21818161     0.35270
H2122       H  0.67343753  0.37956001  0.23978352     0.40360
H2123       H  0.80302021  0.31833110  0.25006544     0.39980
H2124       H  0.78141449  0.30476272  0.27693149     0.34870
C2125       C  0.87233531  0.24351415  0.22715624    -0.26860
C2126       C  0.86750923  0.27377426  0.23611249    -0.14930
C2127       C  0.85880726  0.27970359  0.26607175     0.35700
C2128       C  0.85258435  0.25550155  0.28519740    -0.26310
C2129       C  0.85858574  0.22537643  0.27688087    -0.15550
C2130       C  0.86908249  0.21928386  0.24762640     0.36780
N2131       N  0.87766045  0.18904891  0.23920655    -0.89800
H2132       H  0.87939251  0.23874727  0.20432341     0.17900
H2133       H  0.84464411  0.26051377  0.30770010     0.17890
N2134       N  0.85664631  0.31015722  0.27736351    -0.88830
H2135       H  0.88653773  0.18888157  0.21742037     0.35270
H2136       H  0.85813705  0.17625228  0.23846891     0.40360
H2137       H  0.87837494  0.31880544  0.27807824     0.39980
H2138       H  0.84880716  0.31036242  0.29955156     0.34870
C2139       C  0.78945767  0.24006621  0.14164081    -0.26860
C2140       C  0.77967147  0.27027805  0.14560199    -0.14930
C2141       C  0.75046995  0.27588803  0.15675827     0.35700
C2142       C  0.73141353  0.25162551  0.16157080    -0.26310
C2143       C  0.74033926  0.22171131  0.15557999    -0.15550
C2144       C  0.77004973  0.21558814  0.14672281     0.36780
N2145       N  0.78033898  0.18489528  0.14270435    -0.89800
H2146       H  0.81219378  0.23551416  0.13431221     0.17900
H2147       H  0.70892755  0.25629024  0.16964786     0.17890
N2148       N  0.74021329  0.30604915  0.16385174    -0.88830
H2149       H  0.80301498  0.18446166  0.13681063     0.35270
H2150       H  0.76865912  0.17575419  0.12456075     0.40360
H2151       H  0.75182884  0.31278278  0.18308460     0.39980
H2152       H  0.71752893  0.30621586  0.16974669     0.34870
C2153       C  0.70849138  0.24563377  0.04557943    -0.26860
C2154       C  0.73932252  0.23816969  0.04461195    -0.14930
C2155       C  0.74883992  0.21037486  0.05650143     0.35700
C2156       C  0.72803370  0.19032308  0.06847423    -0.26310
C2157       C  0.69725246  0.19791801  0.07170769    -0.15550
C2158       C  0.68730937  0.22586166  0.05886332     0.36780
N2159       N  0.65631912  0.23471496  0.05808824    -0.89800
H2160       H  0.70078906  0.26679596  0.03560146     0.17900
H2161       H  0.73690238  0.16898223  0.07700970     0.17890
N2162       N  0.77999092  0.20243946  0.05688394    -0.88830
H2163       H  0.65271804  0.25033734  0.07532771     0.35270
H2164       H  0.64239741  0.21617793  0.06165469     0.40360
H2165       H  0.78276298  0.18153123  0.04628455     0.39980
H2166       H  0.78671208  0.19984579  0.07929675     0.34870
C2167       C  0.76768226  0.30292582  0.05999147    -0.26860
C2168       C  0.78105095  0.27876275  0.04439302    -0.14930
C2169       C  0.81277955  0.27678834  0.04388735     0.35700
C2170       C  0.83003174  0.29857373  0.05912896    -0.26310
C2171       C  0.81669166  0.32307602  0.07433692    -0.15550
C2172       C  0.78494348  0.32583580  0.07350685     0.36780
N2173       N  0.77010703  0.35141195  0.08702824    -0.89800
H2174       H  0.74345653  0.30464281  0.06053054     0.17900
H2175       H  0.85420237  0.29611221  0.05944512     0.17890
N2176       N  0.82757550  0.25248096  0.02829009    -0.88830
H2177       H  0.74683283  0.34928016  0.08564512     0.35270
H2178       H  0.77559785  0.37060523  0.07429883     0.40360
H2179       H  0.82396499  0.23254987  0.04042961     0.39980
H2180       H  0.85076370  0.25563476  0.02808662     0.34870
C2181       C  0.72868543  0.18465126  0.95625985    -0.26860
C2182       C  0.70033896  0.19649147  0.94826938    -0.14930
C2183       C  0.69291685  0.22635492  0.95851204     0.35700
C2184       C  0.71405819  0.24370365  0.97362325    -0.26310
C2185       C  0.74260341  0.23249439  0.98044600    -0.15550
C2186       C  0.74963818  0.20199877  0.97269352     0.36780
N2187       N  0.77784758  0.18806703  0.98043879    -0.89800
H2188       H  0.73510883  0.16217272  0.94881552     0.17900
H2189       H  0.70796220  0.26656828  0.98013775     0.17890
N2190       N  0.66410411  0.24030988  0.95383068    -0.88830
H2191       H  0.77330950  0.16920830  0.99402978     0.35270
H2192       H  0.79090412  0.20249120  0.99341076     0.40360
H2193       H  0.64733253  0.22508244  0.95998889     0.39980
H2194       H  0.66175247  0.24708530  0.93136009     0.34870
C2195       C  0.79194222  0.32549429  0.95953419    -0.26860
C2196       C  0.81801043  0.31541845  0.94466892    -0.14930
C2197       C  0.82650817  0.28452723  0.94774117     0.35700
C2198       C  0.80858068  0.26472291  0.96475091    -0.26310
C2199       C  0.78193012  0.27479946  0.97847404    -0.15550
C2200       C  0.77314597  0.30543112  0.97499350     0.36780
N2201       N  0.74389867  0.31549505  0.98447135    -0.89800
H2202       H  0.78462361  0.34884745  0.95663045     0.17900
H2203       H  0.81532596  0.24117069  0.96679434     0.17890
N2204       N  0.85227152  0.27224495  0.93279838    -0.88830
H2205       H  0.74001950  0.33804357  0.97802202     0.35270
H2206       H  0.74307424  0.31510888  0.00786112     0.40360
H2207       H  0.87107854  0.28434095  0.93967278     0.39980
H2208       H  0.84957563  0.27501332  0.90957213     0.34870
C2209       C  0.72810946  0.46920253  0.30738652    -0.26860
C2210       C  0.71878899  0.47503028  0.27761923    -0.14930
C2211       C  0.68987164  0.46550972  0.26923227     0.35700
C2212       C  0.67146932  0.44980961  0.29000043    -0.26310
C2213       C  0.68081535  0.44327652  0.31977325    -0.15550
C2214       C  0.70977523  0.45348831  0.32839451     0.36780
N2215       N  0.72082060  0.44786179  0.35834609    -0.89800
H2216       H  0.75006642  0.47681858  0.31425987     0.17900
H2217       H  0.64969281  0.44233060  0.28243720     0.17890
N2218       N  0.67879585  0.47200360  0.23960131    -0.88830
H2219       H  0.74109537  0.45903422  0.36174803     0.35270
H2220       H  0.72579825  0.42470856  0.36008069     0.40360
H2221       H  0.65800165  0.48277997  0.24170156     0.39980
H2222       H  0.67467285  0.45158798  0.22879546     0.34870
C2223       C  0.78380965  0.45737986  0.24944609    -0.26860
C2224       C  0.76028512  0.47395529  0.23603105    -0.14930
C2225       C  0.75845914  0.47430619  0.20416627     0.35700
C2226       C  0.77968573  0.45787195  0.18674368    -0.26310
C2227       C  0.80345065  0.44135619  0.20012369    -0.15550
C2228       C  0.80551390  0.44162802  0.23213254     0.36780
N2229       N  0.82912893  0.42518794  0.24727196    -0.89800
H2230       H  0.78568907  0.45726629  0.27376321     0.17900
H2231       H  0.77742497  0.45772752  0.16245762     0.17890
N2232       N  0.73494125  0.49121192  0.18947921    -0.88830
H2233       H  0.82624189  0.42587594  0.27062569     0.35270
H2234       H  0.84915682  0.43644198  0.24274921     0.40360
H2235       H  0.71472890  0.48065881  0.19458421     0.39980
H2236       H  0.73731970  0.49022575  0.16608517     0.34870
C2237       C  0.79352793  0.53857589  0.24219620    -0.26860
C2238       C  0.76243056  0.54069359  0.23676996    -0.14930
C2239       C  0.75299695  0.55791568  0.21151008     0.35700
C2240       C  0.77407415  0.57246751  0.19268721    -0.26310
C2241       C  0.80521155  0.57112007  0.19828702    -0.15550
C2242       C  0.81474085  0.55357698  0.22368880     0.36780
N2243       N  0.84577162  0.55010029  0.23122022    -0.89800
H2244       H  0.80146033  0.52517821  0.26118734     0.17900
H2245       H  0.76565043  0.58570171  0.17380519     0.17890
N2246       N  0.72186752  0.56033027  0.20429470    -0.88830
H2247       H  0.85431568  0.57126783  0.23693458     0.35270
H2248       H  0.85717179  0.54182840  0.21238114     0.40360
H2249       H  0.71874532  0.55224482  0.18245528     0.39980
H2250       H  0.71583923  0.58327285  0.20436837     0.34870
C2251       C  0.73383646  0.54588501  0.30836088    -0.26860
C2252       C  0.72170596  0.54048270  0.27964557    -0.14930
C2253       C  0.69131119  0.54837169  0.27479266     0.35700
C2254       C  0.67394732  0.56103145  0.29816707    -0.26310
C2255       C  0.68582535  0.56641786  0.32700706    -0.15550
C2256       C  0.71637955  0.55845316  0.33203108     0.36780
N2257       N  0.72981944  0.56334615  0.36098179    -0.89800
H2258       H  0.75699379  0.53956871  0.31254223     0.17900
H2259       H  0.65089279  0.56724324  0.29332317     0.17890
N2260       N  0.67771779  0.54408404  0.24600771    -0.88830
H2261       H  0.75248440  0.55713593  0.36072027     0.35270
H2262       H  0.71938786  0.54879830  0.37633866     0.40360
H2263       H  0.67117755  0.56544855  0.23786143     0.39980
H2264       H  0.65802165  0.53194564  0.24931872     0.34870
C2265       C  0.29761705  0.54946829  0.69464651    -0.26860
C2266       C  0.31970372  0.56809023  0.70721964    -0.14930
C2267       C  0.32011935  0.57122300  0.73919314     0.35700
C2268       C  0.29801662  0.55674771  0.75684182    -0.26310
C2269       C  0.27528110  0.53935313  0.74379968    -0.15550
C2270       C  0.27519842  0.53602692  0.71221654     0.36780
N2271       N  0.25132805  0.52055061  0.69747734    -0.89800
H2272       H  0.29605639  0.54754425  0.67035665     0.17900
H2273       H  0.29842739  0.55941171  0.78108371     0.17890
N2274       N  0.34119193  0.59006875  0.75465059    -0.88830
H2275       H  0.26082827  0.50396892  0.68365174     0.35270
H2276       H  0.24032990  0.53613642  0.68336122     0.40360
H2277       H  0.35712013  0.59905223  0.74012870     0.39980
H2278       H  0.35310317  0.57620827  0.76974895     0.34870
C2279       C  0.23222748  0.53896856  0.81404283    -0.26860
C2280       C  0.23156023  0.54209642  0.78253142    -0.14930
C2281       C  0.20783033  0.55893002  0.76933132     0.35700
C2282       C  0.18517928  0.57131319  0.78748733    -0.26310
C2283       C  0.18592189  0.56875751  0.81913130    -0.15550
C2284       C  0.20947672  0.55122832  0.83242566     0.36780
N2285       N  0.21061441  0.54436583  0.86415327    -0.89800
H2286       H  0.24992263  0.52549474  0.82439647     0.17900
H2287       H  0.16734379  0.58410132  0.77659699     0.17890
N2288       N  0.20567292  0.56321025  0.73740397    -0.88830
H2289       H  0.21260112  0.52080355  0.86645721     0.35270
H2290       H  0.19026431  0.54947376  0.87452181     0.40360
H2291       H  0.20423860  0.54213511  0.72705853     0.39980
H2292       H  0.22524081  0.57361684  0.72997428     0.34870
C2293       C  0.96580927  0.31030629  0.77182093    -0.26860
C2294       C  0.96828938  0.27976352  0.78067094    -0.14930
C2295       C  0.95562142  0.27070235  0.80835149     0.35700
C2296       C  0.93970957  0.29186538  0.82587283    -0.26310
C2297       C  0.93523823  0.32198624  0.81610483    -0.15550
C2298       C  0.94998343  0.33161642  0.78935736     0.36780
N2299       N  0.94894762  0.36261163  0.77907805    -0.89800
H2300       H  0.97622501  0.31767312  0.75101781     0.17900
H2301       H  0.92841895  0.28391229  0.84598813     0.17890
N2302       N  0.95810183  0.23973331  0.81821453    -0.88830
H2303       H  0.97107586  0.36993944  0.77700026     0.35270
H2304       H  0.93942627  0.37661833  0.79540780     0.40360
H2305       H  0.94622986  0.22673109  0.80292251     0.39980
H2306       H  0.94777311  0.23669440  0.83913146     0.34870
C2307       C  0.95453322  0.25192189  0.71438336    -0.26860
C2308       C  0.96909626  0.23839710  0.73935003    -0.14930
C2309       C  0.96895757  0.20646967  0.74179491     0.35700
C2310       C  0.95566132  0.18898227  0.71920580    -0.26310
C2311       C  0.94044173  0.20227117  0.69456576    -0.15550
C2312       C  0.94008552  0.23422122  0.69223916     0.36780
N2313       N  0.92367542  0.24886448  0.66846715    -0.89800
H2314       H  0.95421445  0.27639927  0.71212939     0.17900
H2315       H  0.95514385  0.16457872  0.72231853     0.17890
N2316       N  0.98066047  0.19155939  0.76810053    -0.88830
H2317       H  0.93848878  0.26269138  0.65653219     0.35270
H2318       H  0.90733205  0.26282188  0.67819885     0.40360
H2319       H  0.99587477  0.17488724  0.76112359     0.39980
H2320       H  0.96300642  0.18020610  0.77859144     0.34870
C2321       C  0.04560522  0.20699862  0.75659330    -0.26860
C2322       C  0.03369805  0.23423556  0.74477565    -0.14930
C2323       C  0.03515289  0.23910231  0.71352132     0.35700
C2324       C  0.04823311  0.21713349  0.69486591    -0.26310
C2325       C  0.06184442  0.19047429  0.70652145    -0.15550
C2326       C  0.05930753  0.18493738  0.73803350     0.36780
N2327       N  0.07096838  0.15801523  0.75238028    -0.89800
H2328       H  0.04362928  0.20238226  0.78047422     0.17900
H2329       H  0.04998798  0.22227620  0.67101480     0.17890
N2330       N  0.02421308  0.26695795  0.70065200    -0.88830
H2331       H  0.08956537  0.16409690  0.76524549     0.35270
H2332       H  0.07791547  0.14183520  0.73688957     0.40360
H2333       H  0.00851377  0.26171612  0.68404686     0.39980
H2334       H  0.04216188  0.27773916  0.69006584     0.34870
C2335       C  0.27935372  0.44150505  0.70265718    -0.26860
C2336       C  0.31105919  0.44245184  0.70464799    -0.14930
C2337       C  0.32346056  0.46010420  0.72822354     0.35700
C2338       C  0.30399424  0.47523426  0.74860532    -0.26310
C2339       C  0.27246117  0.47350078  0.74600676    -0.15550
C2340       C  0.26050335  0.45601567  0.72293862     0.36780
N2341       N  0.22880862  0.45434952  0.71869774    -0.89800
H2342       H  0.26820137  0.42887885  0.68516601     0.17900
H2343       H  0.31355099  0.48909270  0.76615264     0.17890
N2344       N  0.35510062  0.46437245  0.73175758    -0.88830
H2345       H  0.22247516  0.43174045  0.72029035     0.35270
H2346       H  0.22363346  0.46209887  0.69698281     0.40360
H2347       H  0.36715216  0.45628295  0.71338200     0.39980
H2348       H  0.36195358  0.45220036  0.75088033     0.34870
C2349       C  0.23647947  0.29295443  0.64500796    -0.26860
C2350       C  0.26654985  0.28336932  0.64759445    -0.14930
C2351       C  0.27316521  0.25191609  0.64722824     0.35700
C2352       C  0.25011561  0.23131131  0.64812839    -0.26310
C2353       C  0.22010608  0.24052563  0.64642493    -0.15550
C2354       C  0.21309247  0.27171672  0.64331626     0.36780
N2355       N  0.18298304  0.28164021  0.63667318    -0.89800
H2356       H  0.23133203  0.31687899  0.64282014     0.17900
H2357       H  0.25624129  0.20748474  0.64938442     0.17890
N2358       N  0.30314616  0.24026747  0.64435178    -0.88830
H2359       H  0.18224829  0.30513447  0.63334965     0.35270
H2360       H  0.16949569  0.27724184  0.65535128     0.40360
H2361       H  0.30469363  0.22920904  0.62364402     0.39980
H2362       H  0.30670587  0.22382061  0.66103452     0.34870
C2363       C  0.18761766  0.28650203  0.93384742    -0.26860
C2364       C  0.19090062  0.31820997  0.93562328    -0.14930
C2365       C  0.21650529  0.32934267  0.95091532     0.35700
C2366       C  0.23727519  0.30901039  0.96404015    -0.26310
C2367       C  0.23391761  0.27740005  0.96201609    -0.15550
C2368       C  0.20931830  0.26627500  0.94565278     0.36780
N2369       N  0.20528899  0.23432902  0.94233003    -0.89800
H2370       H  0.16848918  0.27713025  0.92226591     0.17900
H2371       H  0.25600301  0.31801043  0.97657842     0.17890
N2372       N  0.22190674  0.36111106  0.95415671    -0.88830
H2373       H  0.20444157  0.22950491  0.91935925     0.35270
H2374       H  0.18459928  0.22856884  0.95167901     0.40360
H2375       H  0.20298555  0.37127263  0.96378738     0.39980
H2376       H  0.22579023  0.37061738  0.93291861     0.34870
C2377       C  0.17824712  0.46196069  0.79954387    -0.26860
C2378       C  0.18904277  0.44395763  0.82353833    -0.14930
C2379       C  0.22085459  0.44368630  0.82878160     0.35700
C2380       C  0.23991916  0.45865154  0.80840248    -0.26310
C2381       C  0.22899255  0.47605325  0.78429821    -0.15550
C2382       C  0.19749397  0.47831911  0.78034557     0.36780
N2383       N  0.18477773  0.49736454  0.75720518    -0.89800
H2384       H  0.15432884  0.46308673  0.79542220     0.17900
H2385       H  0.26392683  0.45740613  0.81208135     0.17890
N2386       N  0.23556269  0.42833750  0.85353519    -0.88830
H2387       H  0.16142636  0.49828753  0.75893186     0.35270
H2388       H  0.18944351  0.48791826  0.73631323     0.40360
H2389       H  0.22113768  0.41916834  0.86927567     0.39980
H2390       H  0.24771219  0.44455637  0.86537475     0.34870
C2391       C  0.03999483  0.30665355  0.77258193    -0.26860
C2392       C  0.03312040  0.27777471  0.78406878    -0.14930
C2393       C  0.04118363  0.27089056  0.81410583     0.35700
C2394       C  0.05648482  0.29259169  0.83155435    -0.26310
C2395       C  0.06430877  0.32134548  0.81991301    -0.15550
C2396       C  0.05514358  0.32835916  0.78990622     0.36780
N2397       N  0.06084334  0.35716901  0.77608669    -0.89800
H2398       H  0.03356022  0.31241596  0.74969618     0.17900
H2399       H  0.06329424  0.28641241  0.85420809     0.17890
N2400       N  0.03574352  0.24116816  0.82624529    -0.88830
H2401       H  0.08394223  0.36029611  0.77446454     0.35270
H2402       H  0.05141739  0.37416836  0.78946447     0.40360
H2403       H  0.01268230  0.23844471  0.82796009     0.39980
H2404       H  0.04426544  0.23919837  0.84811542     0.34870
C2405       C  0.21708206  0.37495348  0.74239118    -0.26860
C2406       C  0.22585184  0.36931995  0.77240695    -0.14930
C2407       C  0.25424043  0.35613384  0.77827831     0.35700
C2408       C  0.27350012  0.35043230  0.75422213    -0.26310
C2409       C  0.26564256  0.35845860  0.72458256    -0.15550
C2410       C  0.23676001  0.36977185  0.71835447     0.36780
N2411       N  0.22808395  0.37759569  0.68808905    -0.89800
H2412       H  0.19494212  0.38406717  0.73761825     0.17900
H2413       H  0.29559462  0.34106440  0.75885461     0.17890
N2414       N  0.26344616  0.34818364  0.80840969    -0.88830
H2415       H  0.20653067  0.38708676  0.68770260     0.35270
H2416       H  0.22681379  0.35741916  0.67603626     0.40360
H2417       H  0.26763305  0.36839345  0.81977914     0.39980
H2418       H  0.28377478  0.33619867  0.80824013     0.34870
C2419       C  0.15976946  0.28477936  0.75185341    -0.26860
C2420       C  0.13735375  0.28089850  0.77362823    -0.14930
C2421       C  0.12073189  0.25414131  0.77442130     0.35700
C2422       C  0.12397137  0.23371242  0.75100306    -0.26310
C2423       C  0.14603949  0.23735555  0.72878188    -0.15550
C2424       C  0.16563832  0.26227482  0.73060910     0.36780
N2425       N  0.19337316  0.26374325  0.71451617    -0.89800
H2426       H  0.17440530  0.30425318  0.75295682     0.17900
H2427       H  0.10989377  0.21398009  0.75091441     0.17890
N2428       N  0.10111379  0.24742809  0.79912831    -0.88830
H2429       H  0.19271294  0.28287592  0.70056510     0.35270
H2430       H  0.19685084  0.24441805  0.70166627     0.40360
H2431       H  0.11440706  0.24343116  0.81814518     0.39980
H2432       H  0.08996329  0.22706984  0.79550278     0.34870
C2433       C  0.28704091  0.18066719  0.95453035    -0.26860
C2434       C  0.31459529  0.18983430  0.94218534    -0.14930
C2435       C  0.32183882  0.22112992  0.94383288     0.35700
C2436       C  0.30063828  0.24222715  0.95517279    -0.26310
C2437       C  0.27300470  0.23303449  0.96705569    -0.15550
C2438       C  0.26669445  0.20146001  0.96756869     0.36780
N2439       N  0.24017694  0.18940957  0.98136065    -0.89800
H2440       H  0.28111012  0.15690235  0.95409998     0.17900
H2441       H  0.30610622  0.26611529  0.95561251     0.17890
N2442       N  0.35033809  0.23171832  0.93323535    -0.88830
H2443       H  0.22749971  0.17917508  0.96450271     0.35270
H2444       H  0.22683111  0.20642726  0.99065032     0.40360
H2445       H  0.36674037  0.22290694  0.94775665     0.39980
H2446       H  0.35157482  0.25532437  0.93478308     0.34870
C2447       C  0.37662782  0.28369963  0.76415137    -0.26860
C2448       C  0.36241093  0.27601551  0.73719150    -0.14930
C2449       C  0.34934376  0.24724045  0.73425743     0.35700
C2450       C  0.35478150  0.22544713  0.75641461    -0.26310
C2451       C  0.36953604  0.23274093  0.78329391    -0.15550
C2452       C  0.37955610  0.26292640  0.78774162     0.36780
N2453       N  0.39184435  0.27402265  0.81551069    -0.89800
H2454       H  0.38563374  0.30625293  0.76705274     0.17900
H2455       H  0.34514739  0.20315165  0.75353638     0.17890
N2456       N  0.32887193  0.24008961  0.71041202    -0.88830
H2457       H  0.41227867  0.28428696  0.81072574     0.35270
H2458       H  0.39690644  0.25684923  0.83075197     0.40360
H2459       H  0.32051645  0.25994828  0.70049568     0.39980
H2460       H  0.30982139  0.23049753  0.72020097     0.34870
C2461       C  0.28061295  0.25960385  0.87999304    -0.26860
C2462       C  0.27224357  0.22990229  0.87277986    -0.14930
C2463       C  0.24265684  0.22417291  0.86313632     0.35700
C2464       C  0.22216423  0.24817938  0.86159156    -0.26310
C2465       C  0.23047531  0.27783422  0.86893357    -0.15550
C2466       C  0.26018139  0.28369829  0.87805522     0.36780
N2467       N  0.26969386  0.31388851  0.88521684    -0.89800
H2468       H  0.30330670  0.26418903  0.88721160     0.17900
H2469       H  0.19953299  0.24362257  0.85414433     0.17890
N2470       N  0.23350079  0.19429682  0.85433631    -0.88830
H2471       H  0.29258142  0.31421165  0.89024100     0.35270
H2472       H  0.25861137  0.32043048  0.90484191     0.40360
H2473       H  0.24471285  0.18904455  0.83434077     0.39980
H2474       H  0.21062527  0.19393637  0.84925142     0.34870
C2475       C  0.26190864  0.14013398  0.72460067    -0.26860
C2476       C  0.23174774  0.13921137  0.73333384    -0.14930
C2477       C  0.22435067  0.13614109  0.76421658     0.35700
C2478       C  0.24730015  0.13362323  0.78530394    -0.26310
C2479       C  0.27744488  0.13536675  0.77671886    -0.15550
C2480       C  0.28490991  0.13825499  0.74586663     0.36780
N2481       N  0.31559856  0.13955511  0.73607833    -0.89800
H2482       H  0.26770994  0.14236135  0.70100596     0.17900
H2483       H  0.24134235  0.13132086  0.80885011     0.17890
N2484       N  0.19371887  0.13613557  0.77437479    -0.88830
H2485       H  0.31689532  0.14353176  0.71287216     0.35270
H2486       H  0.32515859  0.11812384  0.73986012     0.40360
H2487       H  0.18516068  0.15809089  0.77122241     0.39980
H2488       H  0.19243643  0.13170250  0.79750322     0.34870
C2489       C  0.23502360  0.03802002  0.70566792    -0.26860
C2490       C  0.23064547  0.03994172  0.73703476    -0.14930
C2491       C  0.20521993  0.05624516  0.74726211     0.35700
C2492       C  0.18536576  0.07032077  0.72628840    -0.26310
C2493       C  0.19049329  0.06976824  0.69487185    -0.15550
C2494       C  0.21591033  0.05294964  0.68480174     0.36780
N2495       N  0.22288006  0.05008958  0.65347898    -0.89800
H2496       H  0.25373853  0.02489698  0.69712548     0.17900
H2497       H  0.16620813  0.08282603  0.73478967     0.17890
N2498       N  0.19945645  0.05844627  0.77899635    -0.88830
H2499       H  0.22840510  0.07139377  0.64481481     0.35270
H2500       H  0.20401924  0.04193353  0.64227038     0.40360
H2501       H  0.19486983  0.03666579  0.78706200     0.39980
H2502       H  0.18023620  0.07153544  0.78296957     0.34870
C2503       C  0.26448310  0.04580440  0.80910913    -0.26860
C2504       C  0.27250870  0.04057282  0.77892822    -0.14930
C2505       C  0.30180523  0.04895441  0.76976952     0.35700
C2506       C  0.32155996  0.06243810  0.79053963    -0.26310
C2507       C  0.31354383  0.06792734  0.82079327    -0.15550
C2508       C  0.28425294  0.05917930  0.82986001     0.36780
N2509       N  0.27366366  0.06337268  0.85998494    -0.89800
H2510       H  0.24259220  0.03904381  0.81695399     0.17900
H2511       H  0.34350630  0.06904063  0.78257496     0.17890
N2512       N  0.31256016  0.04413405  0.73965537    -0.88830
H2513       H  0.27298854  0.08654600  0.86468568     0.35270
H2514       H  0.28840702  0.05235661  0.87483802     0.40360
H2515       H  0.29655514  0.03379181  0.72621679     0.39980
H2516       H  0.33072759  0.02904340  0.74097822     0.34870
C2517       C  0.20035260  0.97548928  0.74242766    -0.26860
C2518       C  0.23173097  0.97345266  0.73915088    -0.14930
C2519       C  0.24302926  0.95604607  0.71498667     0.35700
C2520       C  0.22309977  0.94140752  0.69504067    -0.26310
C2521       C  0.19165139  0.94306473  0.69841708    -0.15550
C2522       C  0.18045574  0.96059023  0.72277709     0.36780
N2523       N  0.14899333  0.96430543  0.72798743    -0.89800
H2524       H  0.19107243  0.98891711  0.76052216     0.17900
H2525       H  0.23242728  0.92802618  0.67690814     0.17890
N2526       N  0.27477996  0.95357599  0.71033539    -0.88830
H2527       H  0.13990375  0.94324484  0.73349695     0.35270
H2528       H  0.13898361  0.97256292  0.70823444     0.40360
H2529       H  0.28246610  0.97508184  0.70423975     0.39980
H2530       H  0.27958727  0.93928505  0.69225033     0.34870
C2531       C  0.28484234  0.95439371  0.83207724    -0.26860
C2532       C  0.31399809  0.94555153  0.82318715    -0.14930
C2533       C  0.32304115  0.95365401  0.79353014     0.35700
C2534       C  0.30259763  0.96830407  0.77355785    -0.26310
C2535       C  0.27286297  0.97514439  0.78182049    -0.15550
C2536       C  0.26434041  0.96883688  0.81206398     0.36780
N2537       N  0.23535064  0.97734741  0.82361341    -0.89800
H2538       H  0.27736547  0.94920325  0.85472264     0.17900
H2539       H  0.31021251  0.97480090  0.75135138     0.17890
N2540       N  0.35292307  0.94681197  0.78345526    -0.88830
H2541       H  0.22419000  0.95770319  0.83022945     0.35270
H2542       H  0.22199330  0.98766536  0.80715531     0.40360
H2543       H  0.36759757  0.96001671  0.79607846     0.39980
H2544       H  0.35574961  0.95335922  0.76096414     0.34870
C2545       C  0.25979098  0.30390418  0.45921547    -0.26860
C2546       C  0.27204214  0.27607839  0.46944011    -0.14930
C2547       C  0.30316371  0.27147009  0.46666587     0.35700
C2548       C  0.32135908  0.29538186  0.45660791    -0.26310
C2549       C  0.30929486  0.32283006  0.44485832    -0.15550
C2550       C  0.27782075  0.32725714  0.44721970     0.36780
N2551       N  0.26311941  0.35473016  0.43750332    -0.89800
H2552       H  0.23595180  0.30792833  0.46068744     0.17900
H2553       H  0.34518877  0.29100218  0.45427482     0.17890
N2554       N  0.31584226  0.24156768  0.47069684    -0.88830
H2555       H  0.25135086  0.35012965  0.41773013     0.35270
H2556       H  0.27833488  0.37190631  0.43291680     0.40360
H2557       H  0.31344197  0.23481635  0.49302872     0.39980
H2558       H  0.33885405  0.24157222  0.46631460     0.34870
C2559       C  0.18002893  0.22325168  0.45130305    -0.26860
C2560       C  0.18970555  0.19571927  0.43858085    -0.14930
C2561       C  0.22026923  0.18716410  0.44222796     0.35700
C2562       C  0.24022993  0.20686747  0.45686509    -0.26310
C2563       C  0.23065332  0.23478301  0.46852985    -0.15550
C2564       C  0.19986198  0.24279488  0.46606341     0.36780
N2565       N  0.18766863  0.27042597  0.47810049    -0.89800
H2566       H  0.15683643  0.23034679  0.44887601     0.17900
H2567       H  0.26355129  0.20028265  0.45944098     0.17890
N2568       N  0.23135493  0.15902033  0.43025049    -0.88830
H2569       H  0.18033480  0.28382032  0.45997245     0.35270
H2570       H  0.20379203  0.28282517  0.48945024     0.40360
H2571       H  0.22156521  0.14150179  0.44268838     0.39980
H2572       H  0.25448424  0.15693250  0.43355745     0.34870
C2573       C  0.22040196  0.17784251  0.55358540    -0.26860
C2574       C  0.19303811  0.19050908  0.56331740    -0.14930
C2575       C  0.18632500  0.22097582  0.55470753     0.35700
C2576       C  0.20843036  0.23900913  0.54143056    -0.26310
C2577       C  0.23608935  0.22694441  0.53274386    -0.15550
C2578       C  0.24156260  0.19553685  0.53743335     0.36780
N2579       N  0.26840696  0.18169640  0.52593654    -0.89800
H2580       H  0.22586902  0.15460190  0.55962302     0.17900
H2581       H  0.20375579  0.26278863  0.53739945     0.17890
N2582       N  0.15720422  0.23398384  0.56047457    -0.88830
H2583       H  0.26789032  0.15821381  0.52929332     0.35270
H2584       H  0.28629678  0.18948391  0.53874170     0.40360
H2585       H  0.14170133  0.22200678  0.54763719     0.39980
H2586       H  0.15604577  0.25654587  0.55311101     0.34870
C2587       C  0.30409349  0.25664967  0.54703031    -0.26860
C2588       C  0.27729046  0.26785957  0.53412239    -0.14930
C2589       C  0.27053733  0.29892900  0.53714418     0.35700
C2590       C  0.29085777  0.31816250  0.55132876    -0.26310
C2591       C  0.31727938  0.30705367  0.56506975    -0.15550
C2592       C  0.32396789  0.27574189  0.56247059     0.36780
N2593       N  0.34997234  0.26240254  0.57628082    -0.89800
H2594       H  0.30975760  0.23289410  0.54537796     0.17900
H2595       H  0.28457418  0.34183154  0.55378289     0.17890
N2596       N  0.24219520  0.31086994  0.52733308    -0.88830
H2597       H  0.34881365  0.26571970  0.59952215     0.35270
H2598       H  0.36888785  0.27344312  0.56792844     0.40360
H2599       H  0.24612944  0.32939432  0.51311411     0.39980
H2600       H  0.23085818  0.31905267  0.54624818     0.34870
C2601       C  0.45366364  0.23511556  0.80569515    -0.26860
C2602       C  0.45860911  0.22470042  0.77632054    -0.14930
C2603       C  0.45278837  0.19369998  0.77037158     0.35700
C2604       C  0.44079254  0.17496971  0.79323696    -0.26310
C2605       C  0.43535504  0.18570248  0.82262565    -0.15550
C2606       C  0.44344306  0.21593422  0.82904779     0.36780
N2607       N  0.44101552  0.22735463  0.85920735    -0.89800
H2608       H  0.45878404  0.25830653  0.81087822     0.17900
H2609       H  0.43530702  0.15178291  0.78771570     0.17890
N2610       N  0.45899228  0.18019615  0.74165182    -0.88830
H2611       H  0.44744051  0.25007844  0.86005939     0.35270
H2612       H  0.45634828  0.21521790  0.87253879     0.40360
H2613       H  0.46915067  0.19538700  0.72685186     0.39980
H2614       H  0.43849326  0.17422517  0.73206471     0.34870
C2615       C  0.44477583  0.25933895  0.70779876    -0.26860
C2616       C  0.45684455  0.26829102  0.73546152    -0.14930
C2617       C  0.45598617  0.29957823  0.74260709     0.35700
C2618       C  0.44266269  0.32075674  0.72240181    -0.26310
C2619       C  0.43052615  0.31187345  0.69458996    -0.15550
C2620       C  0.43221565  0.28050564  0.68717356     0.36780
N2621       N  0.42071307  0.26987443  0.65893728    -0.89800
H2622       H  0.44599923  0.23565977  0.70169486     0.17900
H2623       H  0.44156052  0.34444346  0.72862748     0.17890
N2624       N  0.46911664  0.30999735  0.77013734    -0.88830
H2625       H  0.42203229  0.24622222  0.65778983     0.35270
H2626       H  0.43469715  0.27817485  0.64195775     0.40360
H2627       H  0.45522623  0.30316527  0.78770024     0.39980
H2628       H  0.46924750  0.33369551  0.77068571     0.34870
C2629       C  0.53120119  0.29157793  0.74299600    -0.26860
C2630       C  0.52145523  0.26442369  0.73069202    -0.14930
C2631       C  0.52658957  0.25898166  0.69973247     0.35700
C2632       C  0.54369151  0.27986913  0.68251449    -0.26310
C2633       C  0.55446084  0.30676181  0.69537629    -0.15550
C2634       C  0.54617971  0.31328341  0.72569880     0.36780
N2635       N  0.55355069  0.34180136  0.73933213    -0.89800
H2636       H  0.52657417  0.29629767  0.76636812     0.17900
H2637       H  0.54941083  0.27463178  0.65941906     0.17890
N2638       N  0.51461940  0.23234244  0.68594664    -0.88830
H2639       H  0.54655757  0.34257176  0.76179109     0.35270
H2640       H  0.54152106  0.35874804  0.72785732     0.40360
H2641       H  0.52571336  0.21355655  0.69523666     0.39980
H2642       H  0.51940856  0.23226507  0.66290250     0.34870
C2643       C  0.53568310  0.19610222  0.76302824    -0.26860
C2644       C  0.52311329  0.22384738  0.77241908    -0.14930
C2645       C  0.52864242  0.23355466  0.80206544     0.35700
C2646       C  0.54669301  0.21599123  0.82131346    -0.26310
C2647       C  0.56089057  0.18916981  0.81161721    -0.15550
C2648       C  0.55474626  0.17876168  0.78218335     0.36780
N2649       N  0.56914596  0.15176225  0.77118309    -0.89800
H2650       H  0.53119051  0.18823177  0.74048727     0.17900
H2651       H  0.55112328  0.22460127  0.84367242     0.17890
N2652       N  0.51693962  0.26190697  0.81259340    -0.88830
H2653       H  0.56316873  0.14793959  0.74876375     0.35270
H2654       H  0.56089611  0.13347241  0.78367048     0.40360
H2655       H  0.53495071  0.27581918  0.81792742     0.39980
H2656       H  0.50547539  0.25781276  0.83271718     0.34870
C2657       C  0.47451559  0.76853426  0.21583146    -0.26860
C2658       C  0.47620101  0.77321636  0.24700056    -0.14930
C2659       C  0.46259868  0.79971398  0.25873398     0.35700
C2660       C  0.44543096  0.81920023  0.23987470    -0.26310
C2661       C  0.44233664  0.81354599  0.20890244    -0.15550
C2662       C  0.45892152  0.78877401  0.19661089     0.36780
N2663       N  0.46020012  0.78322525  0.16473364    -0.89800
H2664       H  0.48593502  0.74910574  0.20618304     0.17900
H2665       H  0.43323316  0.83794113  0.24987915     0.17890
N2666       N  0.46598783  0.80696479  0.28986634    -0.88830
H2667       H  0.48282438  0.78244923  0.15863052     0.35270
H2668       H  0.45134975  0.80157331  0.15258507     0.40360
H2669       H  0.44465755  0.80864303  0.29946108     0.39980
H2670       H  0.47600001  0.82825331  0.29122214     0.34870
C2671       C  0.46678952  0.70196519  0.27145798    -0.26860
C2672       C  0.47779497  0.72816052  0.28537613    -0.14930
C2673       C  0.47208486  0.73192195  0.31651398     0.35700
C2674       C  0.45614436  0.70943980  0.33266928    -0.26310
C2675       C  0.44404707  0.68365915  0.31854027    -0.15550
C2676       C  0.45040513  0.67986699  0.28734716     0.36780
N2677       N  0.43930765  0.65480047  0.27047614    -0.89800
H2678       H  0.46938518  0.69945843  0.24736217     0.17900
H2679       H  0.45128298  0.71336138  0.35621835     0.17890
N2680       N  0.47963898  0.75976061  0.33116605    -0.88830
H2681       H  0.41592532  0.65570780  0.27019025     0.35270
H2682       H  0.44659884  0.63465260  0.28076504     0.40360
H2683       H  0.50278828  0.76091492  0.33294416     0.39980
H2684       H  0.47147101  0.76005907  0.35322277     0.34870
C2685       C  0.55196112  0.73857805  0.31119768    -0.26860
C2686       C  0.54275605  0.72784387  0.28304420    -0.14930
C2687       C  0.54680243  0.69653223  0.27701716     0.35700
C2688       C  0.55905481  0.67706270  0.29938456    -0.26310
C2689       C  0.56708576  0.68755125  0.32815388    -0.15550
C2690       C  0.56249621  0.71897153  0.33408780     0.36780
N2691       N  0.56753015  0.73184498  0.36317917    -0.89800
H2692       H  0.54976117  0.76256335  0.31593425     0.17900
H2693       H  0.56274990  0.65340162  0.29402360     0.17890
N2694       N  0.54003654  0.68456214  0.24783380    -0.88830
H2695       H  0.59014280  0.73000518  0.36887907     0.35270
H2696       H  0.55470080  0.72005659  0.37900599     0.40360
H2697       H  0.51718481  0.68683592  0.24391964     0.39980
H2698       H  0.54497050  0.66136493  0.24690029     0.34870
C2699       C  0.53995835  0.80217533  0.24609152    -0.26860
C2700       C  0.54114955  0.77057960  0.24143194    -0.14930
C2701       C  0.55474269  0.76018674  0.21469007     0.35700
C2702       C  0.56772389  0.78076995  0.19420011    -0.26310
C2703       C  0.56735110  0.81229380  0.19909816    -0.15550
C2704       C  0.55227815  0.82305468  0.22508374     0.36780
N2705       N  0.54919652  0.85509895  0.22999363    -0.89800
H2706       H  0.52883350  0.81062935  0.26604754     0.17900
H2707       H  0.57882488  0.77168496  0.17449443     0.17890
N2708       N  0.55478122  0.72867441  0.20755054    -0.88830
H2709       H  0.53746235  0.85927059  0.24993327     0.35270
H2710       H  0.53601201  0.86396907  0.21249015     0.40360
H2711       H  0.57697856  0.72150056  0.20475184     0.39980
H2712       H  0.54366496  0.72602031  0.18701676     0.34870
C2713       C  0.44408842  0.28267852  0.30844669    -0.26860
C2714       C  0.44053219  0.31414612  0.30281873    -0.14930
C2715       C  0.45426611  0.32629657  0.27671538     0.35700
C2716       C  0.47014269  0.30686522  0.25710259    -0.26310
C2717       C  0.47078135  0.27513953  0.26169243    -0.15550
C2718       C  0.45708583  0.26303129  0.28750580     0.36780
N2719       N  0.45528575  0.23069082  0.29201973    -0.89800
H2720       H  0.43456040  0.27255455  0.32851528     0.17900
H2721       H  0.48140121  0.31645757  0.23768984     0.17890
N2722       N  0.45221387  0.35786953  0.26926457    -0.88830
H2723       H  0.44475747  0.22547024  0.31240657     0.35270
H2724       H  0.47666821  0.22112671  0.29295903     0.40360
H2725       H  0.46055764  0.37025000  0.28737531     0.39980
H2726       H  0.42966608  0.36361388  0.26602764     0.34870
C2727       C  0.47183250  0.20188679  0.22811808    -0.26860
C2728       C  0.47270663  0.23315013  0.22138641    -0.14930
C2729       C  0.45727202  0.24378778  0.19568583     0.35700
C2730       C  0.43987536  0.22364789  0.17860639    -0.26310
C2731       C  0.43604866  0.19294754  0.18711115    -0.15550
C2732       C  0.45319497  0.18185664  0.21187758     0.36780
N2733       N  0.45092943  0.15075218  0.22138591    -0.89800
H2734       H  0.48437375  0.19334929  0.24730005     0.17900
H2735       H  0.42745820  0.23285371  0.15963129     0.17890
N2736       N  0.45905340  0.27519252  0.18705037    -0.88830
H2737       H  0.46731370  0.14561788  0.23752688     0.35270
H2738       H  0.43039711  0.14842543  0.23243400     0.40360
H2739       H  0.44687501  0.28765719  0.20285003     0.39980
H2740       H  0.44837763  0.27896371  0.16637685     0.34870
C2741       C  0.53819585  0.23370182  0.19552964    -0.26860
C2742       C  0.53788687  0.23184653  0.22713636    -0.14930
C2743       C  0.55171788  0.20664806  0.24106894     0.35700
C2744       C  0.56749021  0.18520897  0.22375008    -0.26310
C2745       C  0.56887223  0.18742785  0.19208736    -0.15550
C2746       C  0.55232986  0.21130010  0.17782060     0.36780
N2747       N  0.54879719  0.21328053  0.14564784    -0.89800
H2748       H  0.52628623  0.25217421  0.18443348     0.17900
H2749       H  0.57939201  0.16710562  0.23542025     0.17890
N2750       N  0.54891841  0.20217687  0.27284226    -0.88830
H2751       H  0.52584788  0.21532883  0.14117161     0.35270
H2752       H  0.55484233  0.19283637  0.13556084     0.40360
H2753       H  0.57027531  0.20180135  0.28232200     0.39980
H2754       H  0.53910659  0.18105902  0.27665242     0.34870
C2755       C  0.54446554  0.29490938  0.31696713    -0.26860
C2756       C  0.55959105  0.32038503  0.30577939    -0.14930
C2757       C  0.56120194  0.32405474  0.27385465     0.35700
C2758       C  0.54839784  0.30199844  0.25483099    -0.26310
C2759       C  0.53475483  0.27575430  0.26639849    -0.15550
C2760       C  0.53314508  0.27243012  0.29803744     0.36780
N2761       N  0.52142480  0.24555936  0.31153578    -0.89800
H2762       H  0.54373029  0.29092797  0.34109506     0.17900
H2763       H  0.54939361  0.30527750  0.23064157     0.17890
N2764       N  0.57623165  0.34901967  0.25963823    -0.88830
H2765       H  0.50470928  0.25202791  0.32674441     0.35270
H2766       H  0.53856222  0.23527360  0.32414541     0.40360
H2767       H  0.58378888  0.36480508  0.27511127     0.39980
H2768       H  0.59501813  0.34033874  0.24846503     0.34870
loop_ 
_geom_bond_atom_site_label_1 
_geom_bond_atom_site_label_2 
_geom_bond_distance 
_geom_bond_site_symmetry_2 
_ccdc_geom_bond_type 
C1            C2   1.369       .  D
C1         C2742   1.504       .  S
C1         C2759   1.517       .  S
C2         C2717   1.498       .  S
C2         C2728   1.513       .  S
C3            C4   1.379       .  D
C3         C2686   1.515       .  S
C3         C2700   1.521       .  S
C4         C2658   1.515       .  S
C4         C2672   1.518       .  S
C5            C6   1.371       .  D
C5         C2630   1.501       .  S
C5         C2644   1.504       .  S
C6         C2602   1.514       .  S
C6         C2616   1.515       .  S
C7            C8   1.375       .  D
C7         C2577   1.505       .  S
C7         C2588   1.507       .  S
C8         C2546   1.512       .  S
C8         C2563   1.502       .  S
C9           C10   1.381   1_565  D
C9         C2518   1.524       .  S
C9         C2535   1.526       .  S
C10        C2490   1.526       .  S
C10        C2504   1.520       .  S
Fe11         O27   2.057       .  S
Fe11         O17   2.087       .  S
Fe11         O24   2.058       .  S
Fe11         O16   2.029       .  S
Fe11         O22   1.999       .  S
Fe12         O15   2.056       .  S
Fe12         O19   2.088       .  S
Fe12         O23   2.027       .  S
Fe12         O28   2.046       .  S
Fe12         O22   1.993       .  S
Fe13         O31   2.093       .  S
Fe13         O18   2.035       .  S
Fe13         O25   2.063       .  S
Fe13         O14   2.048       .  S
Fe13         O22   1.998       .  S
O14          C21   1.268       .  A
O15          C29   1.268       .  A
O16          C21   1.262       .  A
O17          C20   1.272       .  A
O18          C30   1.263       .  A
O19          C32   1.272       .  A
C20          O25   1.271       .  A
C20        C2507   1.522       .  S
C21        C2479   1.469       .  S
O23          C26   1.259       .  A
O24          C26   1.269       .  A
C26        C2451   1.465       .  S
O27          C32   1.268       .  A
O28          C30   1.266       .  A
C29          O31   1.274       .  A
C29        C2434   1.516       .  S
C30        C2462   1.470       .  S
C32        C2605   1.512       .  S
Fe33         O49   2.080       .  S
Fe33         O39   2.094       .  S
Fe33         O46   2.040       .  S
Fe33         O38   2.026       .  S
Fe33         O44   2.010       .  S
Fe34         O37   2.073       .  S
Fe34         O41   2.071       .  S
Fe34         O45   2.034       .  S
Fe34         O50   2.042       .  S
Fe34         O44   1.988       .  S
Fe35         O53   2.062       .  S
Fe35         O40   2.043       .  S
Fe35         O47   2.042       .  S
Fe35         O36   2.061       .  S
Fe35         O44   1.984       .  S
O36          C43   1.268       .  A
O37          C51   1.270       .  A
O38          C43   1.261       .  A
O39          C42   1.275       .  A
O40          C52   1.265       .  A
O41          C54   1.272       .  A
C42          O47   1.256       .  A
C42        C2378   1.512       .  S
C43        C2406   1.473       .  S
O45          C48   1.261       .  A
O46          C48   1.262       .  A
C48        C2420   1.453       .  S
O49          C54   1.274       .  A
O50          C52   1.267       .  A
C51          O53   1.265       .  A
C51        C2364   1.507       .  S
C52        C2465   1.469       .  S
C54        C2395   1.516       .  S
Fe55         O71   2.089       .  S
Fe55         O61   2.072       .  S
Fe55         O68   2.053       .  S
Fe55         O60   2.053       .  S
Fe55         O66   1.957       .  S
Fe56         O59   2.019       .  S
Fe56         O63   2.028       .  S
Fe56         O67   2.143       .  S
Fe56         O72   2.133       .  S
Fe56         O66   1.941       .  S
Fe57         O75   2.089       .  S
Fe57         O62   2.054       .  S
Fe57         O69   2.105       .  S
Fe57         O58   2.013       .  S
Fe57         O66   1.974       .  S
O58          C65   1.253       .  A
O59          C73   1.260       .  A
O60          C65   1.261       .  A
O61          C64   1.279       .  A
O62          C74   1.276       .  A
O63          C76   1.258       .  A
C64          O69   1.289       .  A
C64        C2619   1.517       .  S
C65        C2448   1.461       .  S
O67          C70   1.305       .  A
O68          C70   1.274       .  A
C70        C2350   1.477       .  S
O71          C76   1.275       .  A
O72          C74   1.302       .  A
C73          O75   1.278       .  A
C73        C2336   1.514       .  S
C74        C2409   1.465       .  S
C76        C2591   1.491       .  S
Fe77         O93   2.107       .  S
Fe77         O83   2.096       .  S
Fe77         O90   2.043       .  S
Fe77         O82   2.063       .  S
Fe77         O88   1.964       .  S
Fe78         O81   2.099       .  S
Fe78         O85   2.083       .  S
Fe78         O89   2.012       .  S
Fe78         O94   2.051       .  S
Fe78         O88   1.957       .  S
Fe79         O97   2.035       .  S
Fe79         O84   2.149       .  S
Fe79         O91   2.038       .  S
Fe79         O80   2.121       .  S
Fe79         O88   1.943       .  S
O80          C87   1.300       .  A
O81          C95   1.278       .  A
O82          C87   1.278       .  A
O83          C86   1.279       .  A
O84          C96   1.303       .  A
O85          C98   1.287       .  A
C86          O91   1.262       .  A
C86        C2574   1.503       .  S
C87        C2353   1.472       .  S
O89          C92   1.253       .  A
O90          C92   1.260       .  A
C92        C2476   1.469       .  S
O93          C98   1.287       .  A
O94          C96   1.276       .  A
C95          O97   1.261       .  A
C95        C2325   1.500       .  S
C96        C2423   1.470       .  S
C98        C2493   1.525       .  S
C99         C100   1.373   1_455  D
C99        C2322   1.505       .  S
C99        C2392   1.511       .  S
C100       C2294   1.501       .  S
C100       C2308   1.513       .  S
C101        C102   1.373       .  D
C101       C2339   1.505       .  S
C101       C2381   1.514       .  S
C102       C2269   1.510       .  S
C102       C2280   1.504       .  S
C103        C104   1.382       .  D
C103       C2210   1.524       .  S
C103       C2224   1.520       .  S
C104       C2238   1.527       .  S
C104       C2252   1.520       .  S
C105        C106   1.371   1_554  D
C105       C2154   1.497       .  S
C105       C2168   1.514       .  S
C106       C2185   1.507       .  S
C106       C2199   1.496       .  S
Fe107       O123   2.085       .  S
Fe107       O113   2.084       .  S
Fe107       O120   2.043       .  S
Fe107       O112   2.046       .  S
Fe107       O118   2.016       .  S
Fe108       O111   2.088       .  S
Fe108       O115   2.057       .  S
Fe108       O119   2.047       .  S
Fe108       O124   2.014       .  S
Fe108       O118   1.986       .  S
Fe109       O127   2.069       .  S
Fe109       O114   2.038       .  S
Fe109       O121   2.059       .  S
Fe109       O110   2.046       .  S
Fe109       O118   1.982       .  S
O110        C117   1.265       .  A
O111        C125   1.275       .  A
O112        C117   1.264       .  A
O113        C116   1.273       .  A
O114        C126   1.265       .  A
O115        C128   1.268       .  A
C116        O121   1.266       .  A
C116       C2101   1.507       .  S
C117       C2126   1.478       .  S
O119        C122   1.264       .  A
O120        C122   1.262       .  A
C122       C2140   1.476       .  S
O123        C128   1.273       .  A
O124        C126   1.261       .  A
C125        O127   1.271       .  A
C125       C2227   1.519       .  S
C126       C2112   1.445       .  S
C128       C2171   1.508       .  S
Fe129       O145   2.068       .  S
Fe129       O135   2.097       .  S
Fe129       O142   2.081       .  S
Fe129       O134   2.020       .  S
Fe129       O140   1.955       .  S
Fe130       O133   2.044       .  S
Fe130       O137   2.067       .  S
Fe130       O141   2.114       .  S
Fe130       O146   2.153       .  S
Fe130       O140   1.953       .  S
Fe131       O149   2.084       .  S
Fe131       O136   2.044       .  S
Fe131       O143   2.080       .  S
Fe131       O132   2.035       .  S
Fe131       O140   1.956       .  S
O132        C139   1.259       .  A
O133        C147   1.263       .  A
O134        C139   1.255       .  A
O135        C138   1.288       .  A
O136        C148   1.274       .  A
O137        C150   1.266       .  A
C138        O143   1.284       .  A
C138       C2042   1.514       .  S
C139       C2070   1.464       .  S
O141        C144   1.298       .  A
O142        C144   1.280       .  A
C144       C2084   1.462       .  S
O145        C150   1.271       .  A
O146        C148   1.305       .  A
C147        O149   1.276       .  A
C147       C2031   1.496       .  S
C148       C2129   1.473       .  S
C150       C2056   1.493       .  S
Fe151       O167   2.091       .  S
Fe151       O157   2.099       .  S
Fe151       O164   2.030       .  S
Fe151       O156   2.048       .  S
Fe151       O162   1.963       .  S
Fe152       O155   2.077       .  S
Fe152       O159   2.093       .  S
Fe152       O163   2.003       .  S
Fe152       O168   2.071       .  S
Fe152       O162   1.970       .  S
Fe153       O171   2.055       .  S
Fe153       O158   2.127       .  S
Fe153       O165   2.063       .  S
Fe153       O154   2.134       .  S
Fe153       O162   1.945       .  S
O154        C161   1.302       .  A
O155        C169   1.275       .  A
O156        C161   1.274       .  A
O157        C160   1.281       .  A
O158        C170   1.302       .  A
O159        C172   1.286       .  A
C160        O165   1.264       .  A
C160       C2003   1.506       .  S
C161       C2073   1.472       .  S
O163        C166   1.251       .  A
O164        C166   1.258       .  A
C166       C2115   1.449       .  S
O167        C172   1.284       .  A
O168        C170   1.275       .  A
C169        O171   1.265       .  A
C169       C2756   1.498       .  S
C170       C2014   1.463       .  S
C172       C2213   1.526       .  S
Fe173       O189   2.097       .  S
Fe173       O179   2.086       .  S
Fe173       O186   2.019       .  S
Fe173       O178   2.084       .  S
Fe173       O184   1.961       .  S
Fe174       O177   2.101       .  S
Fe174       O181   2.072       .  S
Fe174       O185   2.056       .  S
Fe174       O190   2.041       .  S
Fe174       O184   1.964       .  S
Fe175       O193   2.006       .  S
Fe175       O180   2.150       .  S
Fe175       O187   2.023       .  S
Fe175       O176   2.112       .  S
Fe175       O184   1.935       .  S
O176        C183   1.299       .  A
O177        C191   1.277       .  A
O178        C183   1.280       .  A
O179        C182   1.273       .  A
O180        C192   1.305       .  A
O181        C194   1.283       .  A
C182        O187   1.257       .  A
C182       C1986   1.495       .  S
C183       C2087   1.461       .  S
O185        C188   1.262       .  A
O186        C188   1.252       .  A
C188       C2017   1.474       .  S
O189        C194   1.289       .  A
O190        C192   1.274       .  A
C191        O193   1.256       .  A
C191       C2157   1.509       .  S
C192       C2143   1.469       .  S
C194       C2745   1.504       .  S
C195        C196   1.370   1_545  D
C195       C1989   1.496       .  S
C195       C2059   1.504       .  S
C196       C1961   1.506       .  S
C196       C1975   1.508       .  S
C197        C198   1.380       .  D
C197       C2000   1.518       .  S
C197       C2045   1.513       .  S
C198       C1930   1.516       .  S
C198       C1944   1.516       .  S
C199        C200   1.376   1_556  D
C199       C1902   1.520       .  S
C199       C1916   1.519       .  S
C200       C1877   1.509       .  S
C200       C1888   1.506       .  S
Fe201       O217   2.094       .  S
Fe201       O207   2.100       .  S
Fe201       O214   2.081       .  S
Fe201       O206   2.028       .  S
Fe201       O212   1.968       .  S
Fe202       O205   2.033       .  S
Fe202       O209   2.043       .  S
Fe202       O213   2.120       .  S
Fe202       O218   2.129       .  S
Fe202       O212   1.943       .  S
Fe203       O221   2.114       .  S
Fe203       O208   2.050       .  S
Fe203       O215   2.100       .  S
Fe203       O204   2.025       .  S
Fe203       O212   1.974       .  S
O204        C211   1.257       .  A
O205        C219   1.258       .  A
O206        C211   1.254       .  A
O207        C210   1.290       .  A
O208        C220   1.274       .  A
O209        C222   1.261       .  A
C210        O215   1.291       .  A
C210       C2241   1.527       .  S
C211       C1860   1.469       .  S
O213        C216   1.299       .  A
O214        C216   1.280       .  A
C216       C1832   1.462       .  S
O217        C222   1.274       .  A
O218        C220   1.302       .  A
C219        O221   1.282       .  A
C219       C1818   1.519       .  S
C220       C1846   1.447       .  S
C222       C1891   1.511       .  S
Fe223       O239   2.062       .  S
Fe223       O229   2.053       .  S
Fe223       O236   2.041       .  S
Fe223       O228   2.054       .  S
Fe223       O234   1.985       .  S
Fe224       O227   2.062       .  S
Fe224       O231   2.079       .  S
Fe224       O235   2.042       .  S
Fe224       O240   2.057       .  S
Fe224       O234   1.988       .  S
Fe225       O243   2.087       .  S
Fe225       O230   2.019       .  S
Fe225       O237   2.085       .  S
Fe225       O226   2.039       .  S
Fe225       O234   2.015       .  S
O226        C233   1.261       .  A
O227        C241   1.269       .  A
O228        C233   1.269       .  A
O229        C232   1.264       .  A
O230        C242   1.258       .  A
O231        C244   1.271       .  A
C232        O237   1.272       .  A
C232       C1958   1.508       .  S
C233       C1790   1.471       .  S
O235        C238   1.265       .  A
O236        C238   1.267       .  A
C238       C1804   1.469       .  S
O239        C244   1.269       .  A
O240        C242   1.268       .  A
C241        O243   1.275       .  A
C241       C1762   1.514       .  S
C242       C1849   1.461       .  S
C244       C1776   1.511       .  S
Fe245       O261   2.091       .  S
Fe245       O251   2.074       .  S
Fe245       O258   2.027       .  S
Fe245       O250   2.087       .  S
Fe245       O256   1.949       .  S
Fe246       O249   2.082       .  S
Fe246       O253   2.085       .  S
Fe246       O257   2.036       .  S
Fe246       O262   2.053       .  S
Fe246       O256   1.964       .  S
Fe247       O265   2.044       .  S
Fe247       O252   2.151       .  S
Fe247       O259   2.077       .  S
Fe247       O248   2.107       .  S
Fe247       O256   1.952       .  S
O248        C255   1.297       .  A
O249        C263   1.275       .  A
O250        C255   1.281       .  A
O251        C254   1.269       .  A
O252        C264   1.307       .  A
O253        C266   1.284       .  A
C254        O259   1.266       .  A
C254       C1874   1.494       .  S
C255       C1835   1.459       .  S
O257        C260   1.258       .  A
O258        C260   1.258       .  A
C260       C1748   1.469       .  S
O261        C266   1.284       .  A
O262        C264   1.273       .  A
C263        O265   1.263       .  A
C263       C1972   1.508       .  S
C264       C1793   1.479       .  S
C266       C2703   1.513       .  S
Fe267       O283   2.066       .  S
Fe267       O273   2.076       .  S
Fe267       O280   2.044       .  S
Fe267       O272   2.042       .  S
Fe267       O278   2.000       .  S
Fe268       O271   2.079       .  S
Fe268       O275   2.081       .  S
Fe268       O279   2.030       .  S
Fe268       O284   2.036       .  S
Fe268       O278   1.999       .  S
Fe269       O287   2.067       .  S
Fe269       O274   2.042       .  S
Fe269       O281   2.065       .  S
Fe269       O270   2.046       .  S
Fe269       O278   1.997       .  S
O270        C277   1.267       .  A
O271        C285   1.273       .  A
O272        C277   1.265       .  A
O273        C276   1.270       .  A
O274        C286   1.263       .  A
O275        C288   1.272       .  A
C276        O281   1.265       .  A
C276       C2689   1.514       .  S
C277       C1751   1.472       .  S
O279        C282   1.262       .  A
O280        C282   1.266       .  A
C282       C1863   1.469       .  S
O283        C288   1.271       .  A
O284        C286   1.265       .  A
C285        O287   1.268       .  A
C285       C1734   1.513       .  S
C286       C1807   1.469       .  S
C288       C2255   1.518       .  S
C289        C290   1.377       .  D
C289       C1737   1.509       .  S
C289       C1779   1.509       .  S
C290       C1706   1.517       .  S
C290       C1720   1.506       .  S
C291        C292   1.377   1_565  D
C291       C1678   1.517       .  S
C291       C1695   1.517       .  S
C292       C1653   1.516       .  S
C292       C1664   1.518       .  S
Fe293       O309   2.077       .  S
Fe293       O299   2.075       .  S
Fe293       O306   2.041       .  S
Fe293       O298   2.084       .  S
Fe293       O304   1.952       .  S
Fe294       O297   2.104       .  S
Fe294       O301   2.110       .  S
Fe294       O305   2.019       .  S
Fe294       O310   2.066       .  S
Fe294       O304   1.972       .  S
Fe295       O313   2.025       .  S
Fe295       O300   2.133       .  S
Fe295       O307   2.056       .  S
Fe295       O296   2.114       .  S
Fe295       O304   1.942       .  S
O296        C303   1.298       .  A
O297        C311   1.281       .  A
O298        C303   1.279       .  A
O299        C302   1.269       .  A
O300        C312   1.302       .  A
O301        C314   1.295       .  A
C302        O307   1.263       .  A
C302       C2647   1.495       .  S
C303       C1636   1.458       .  S
O305        C308   1.254       .  A
O306        C308   1.258       .  A
C308       C1608   1.470       .  S
O309        C314   1.281       .  A
O310        C312   1.277       .  A
C311        O313   1.255       .  A
C311       C2182   1.508       .  S
C312       C1625   1.459       .  S
C314       C1667   1.516       .  S
Fe315       O331   2.075       .  S
Fe315       O321   2.080       .  S
Fe315       O328   2.032       .  S
Fe315       O320   2.076       .  S
Fe315       O326   1.948       .  S
Fe316       O319   2.092       .  S
Fe316       O323   2.091       .  S
Fe316       O327   2.062       .  S
Fe316       O332   2.052       .  S
Fe316       O326   1.951       .  S
Fe317       O335   2.021       .  S
Fe317       O322   2.147       .  S
Fe317       O329   2.028       .  S
Fe317       O318   2.113       .  S
Fe317       O326   1.939       .  S
O318        C325   1.297       .  A
O319        C333   1.277       .  A
O320        C325   1.281       .  A
O321        C324   1.271       .  A
O322        C334   1.302       .  A
O323        C336   1.285       .  A
C324        O329   1.258       .  A
C324       C2196   1.487       .  S
C325       C1622   1.458       .  S
O327        C330   1.263       .  A
O328        C330   1.255       .  A
C330       C1583   1.469       .  S
O331        C336   1.289       .  A
O332        C334   1.271       .  A
C333        O335   1.262       .  A
C333       C1566   1.501       .  S
C334       C1594   1.466       .  S
C336       C2297   1.494       .  S
Fe337       O353   2.097       .  S
Fe337       O343   2.105       .  S
Fe337       O350   2.032       .  S
Fe337       O342   2.050       .  S
Fe337       O348   1.983       .  S
Fe338       O341   2.094       .  S
Fe338       O345   2.093       .  S
Fe338       O349   2.029       .  S
Fe338       O354   2.073       .  S
Fe338       O348   1.969       .  S
Fe339       O357   2.033       .  S
Fe339       O344   2.112       .  S
Fe339       O351   2.010       .  S
Fe339       O340   2.136       .  S
Fe339       O348   1.942       .  S
O340        C347   1.303       .  A
O341        C355   1.276       .  A
O342        C347   1.275       .  A
O343        C346   1.280       .  A
O344        C356   1.299       .  A
O345        C358   1.287       .  A
C346        O351   1.255       .  A
C346       C1650   1.524       .  S
C347       C1611   1.463       .  S
O349        C352   1.257       .  A
O350        C352   1.255       .  A
C352       C1555   1.473       .  S
O353        C358   1.291       .  A
O354        C356   1.277       .  A
C355        O357   1.257       .  A
C355       C2311   1.496       .  S
C356       C1580   1.444       .  S
C358       C1947   1.522       .  S
Fe359       O375   2.102       .  S
Fe359       O365   2.089       .  S
Fe359       O372   2.069       .  S
Fe359       O364   2.034       .  S
Fe359       O370   1.964       .  S
Fe360       O363   2.042       .  S
Fe360       O367   2.025       .  S
Fe360       O371   2.129       .  S
Fe360       O376   2.116       .  S
Fe360       O370   1.947       .  S
Fe361       O379   2.072       .  S
Fe361       O366   2.089       .  S
Fe361       O373   2.095       .  S
Fe361       O362   2.032       .  S
Fe361       O370   1.961       .  S
O362        C369   1.256       .  A
O363        C377   1.260       .  A
O364        C369   1.258       .  A
O365        C368   1.289       .  A
O366        C378   1.281       .  A
O367        C380   1.256       .  A
C368        O373   1.287       .  A
C368       C1933   1.517       .  S
C369       C1552   1.474       .  S
O371        C374   1.301       .  A
O372        C374   1.278       .  A
C374       C1639   1.455       .  S
O375        C380   1.276       .  A
O376        C378   1.299       .  A
C377        O379   1.270       .  A
C377       C1541   1.486       .  S
C378       C1597   1.462       .  S
C380       C2633   1.504       .  S
C381        C382   1.378       .  D
C381       C1538   1.505       .  S
C381       C1569   1.503       .  S
C382       C1510   1.518       .  S
C382       C1524   1.511       .  S
Fe383       O399   2.092       .  S
Fe383       O389   2.090       .  S
Fe383       O396   2.061       .  S
Fe383       O388   2.036       .  S
Fe383       O394   1.967       .  S
Fe384       O387   2.033       .  S
Fe384       O391   2.017       .  S
Fe384       O395   2.143       .  S
Fe384       O400   2.111       .  S
Fe384       O394   1.940       .  S
Fe385       O403   2.096       .  S
Fe385       O390   2.081       .  S
Fe385       O397   2.098       .  S
Fe385       O386   2.022       .  S
Fe385       O394   1.962       .  S
O386        C393   1.255       .  A
O387        C401   1.256       .  A
O388        C393   1.259       .  A
O389        C392   1.287       .  A
O390        C402   1.280       .  A
O391        C404   1.255       .  A
C392        O397   1.286       .  A
C392       C1905   1.521       .  S
C393       C1468   1.465       .  S
O395        C398   1.304       .  A
O396        C398   1.277       .  A
C398       C1496   1.463       .  S
O399        C404   1.277       .  A
O400        C402   1.299       .  A
C401        O403   1.275       .  A
C401       C1454   1.499       .  S
C402       C1485   1.459       .  S
C404       C1527   1.494       .  S
Fe405       O421   2.079       .  S
Fe405       O411   2.090       .  S
Fe405       O418   2.091       .  S
Fe405       O410   2.023       .  S
Fe405       O416   1.961       .  S
Fe406       O409   2.046       .  S
Fe406       O413   2.055       .  S
Fe406       O417   2.114       .  S
Fe406       O422   2.141       .  S
Fe406       O416   1.951       .  S
Fe407       O425   2.093       .  S
Fe407       O412   2.040       .  S
Fe407       O419   2.091       .  S
Fe407       O408   2.053       .  S
Fe407       O416   1.963       .  S
O408        C415   1.261       .  A
O409        C423   1.263       .  A
O410        C415   1.254       .  A
O411        C414   1.288       .  A
O412        C424   1.273       .  A
O413        C426   1.263       .  A
C414        O419   1.284       .  A
C414       C1692   1.517       .  S
C415       C1426   1.476       .  S
O417        C420   1.299       .  A
O418        C420   1.282       .  A
C420       C1482   1.465       .  S
O421        C426   1.270       .  A
O422        C424   1.302       .  A
C423        O425   1.279       .  A
C423       C1723   1.510       .  S
C424       C1440   1.456       .  S
C426       C1412   1.503       .  S
Fe427       O443   2.071       .  S
Fe427       O433   2.083       .  S
Fe427       O440   2.031       .  S
Fe427       O432   2.046       .  S
Fe427       O438   1.998       .  S
Fe428       O431   2.071       .  S
Fe428       O435   2.082       .  S
Fe428       O439   2.022       .  S
Fe428       O444   2.046       .  S
Fe428       O438   2.014       .  S
Fe429       O447   2.078       .  S
Fe429       O434   2.031       .  S
Fe429       O441   2.070       .  S
Fe429       O430   2.040       .  S
Fe429       O438   1.986       .  S
O430        C437   1.264       .  A
O431        C445   1.273       .  A
O432        C437   1.262       .  A
O433        C436   1.275       .  A
O434        C446   1.265       .  A
O435        C448   1.273       .  A
C436        O441   1.273       .  A
C436       C1681   1.515       .  S
C437       C1429   1.477       .  S
O439        C442   1.261       .  A
O440        C442   1.264       .  A
C442       C1398   1.438       .  S
O443        C448   1.272       .  A
O444        C446   1.265       .  A
C445        O447   1.269       .  A
C445       C1919   1.520       .  S
C446       C1471   1.463       .  S
C448       C1384   1.524       .  S
Fe449       O465   2.072       .  S
Fe449       O455   2.069       .  S
Fe449       O462   2.050       .  S
Fe449       O454   2.038       .  S
Fe449       O460   2.017       .  S
Fe450       O453   2.094       .  S
Fe450       O457   2.065       .  S
Fe450       O461   2.053       .  S
Fe450       O466   2.014       .  S
Fe450       O460   1.999       .  S
Fe451       O469   2.072       .  S
Fe451       O456   2.054       .  S
Fe451       O463   2.071       .  S
Fe451       O452   2.046       .  S
Fe451       O460   1.969       .  S
O452        C459   1.267       .  A
O453        C467   1.279       .  A
O454        C459   1.262       .  A
O455        C458   1.273       .  A
O456        C468   1.268       .  A
O457        C470   1.267       .  A
C458        O463   1.271       .  A
C458       C1709   1.508       .  S
C459       C1443   1.474       .  S
O461        C464   1.267       .  A
O462        C464   1.265       .  A
C464       C1499   1.473       .  S
O465        C470   1.265       .  A
O466        C468   1.256       .  A
C467        O469   1.273       .  A
C467       C1370   1.523       .  S
C468       C1401   1.449       .  S
C470       C1513   1.507       .  S
C471        C472   1.381       .  D
C471       C1342   1.516       .  S
C471       C1356   1.519       .  S
C472       C1373   1.523       .  S
C472       C1387   1.524       .  S
Fe473       O489   2.058       .  S
Fe473       O479   2.056       .  S
Fe473       O486   2.059       .  S
Fe473       O478   2.048       .  S
Fe473       O484   1.981       .  S
Fe474       O477   2.087       .  S
Fe474       O481   2.079       .  S
Fe474       O485   2.030       .  S
Fe474       O490   2.036       .  S
Fe474       O484   2.007       .  S
Fe475       O493   2.049       .  S
Fe475       O480   2.052       .  S
Fe475       O487   2.078       .  S
Fe475       O476   2.044       .  S
Fe475       O484   1.997       .  S
O476        C483   1.264       .  A
O477        C491   1.273       .  A
O478        C483   1.268       .  A
O479        C482   1.264       .  A
O480        C492   1.267       .  A
O481        C494   1.273       .  A
C482        O487   1.268       .  A
C482       C1272   1.507       .  S
C483       C1314   1.473       .  S
O485        C488   1.262       .  A
O486        C488   1.268       .  A
C488       C1300   1.467       .  S
O489        C494   1.264       .  A
O490        C492   1.263       .  A
C491        O493   1.266       .  A
C491       C2283   1.503       .  S
C492       C1328   1.466       .  S
C494       C1286   1.509       .  S
Fe495       O511   2.091       .  S
Fe495       O501   2.093       .  S
Fe495       O508   2.058       .  S
Fe495       O500   2.029       .  S
Fe495       O506   1.960       .  S
Fe496       O499   2.032       .  S
Fe496       O503   2.029       .  S
Fe496       O507   2.149       .  S
Fe496       O512   2.124       .  S
Fe496       O506   1.942       .  S
Fe497       O515   2.088       .  S
Fe497       O502   2.065       .  S
Fe497       O509   2.093       .  S
Fe497       O498   2.016       .  S
Fe497       O506   1.964       .  S
O498        C505   1.255       .  A
O499        C513   1.260       .  A
O500        C505   1.257       .  A
O501        C504   1.286       .  A
O502        C514   1.277       .  A
O503        C516   1.257       .  A
C504        O509   1.287       .  A
C504       C2521   1.521       .  S
C505       C1244   1.454       .  S
O507        C510   1.305       .  A
O508        C510   1.273       .  A
C510       C1258   1.484       .  S
O511        C516   1.277       .  A
O512        C514   1.300       .  A
C513        O515   1.276       .  A
C513       C1233   1.495       .  S
C514       C1303   1.456       .  S
C516       C1216   1.499       .  S
Fe517       O533   2.071       .  S
Fe517       O523   2.078       .  S
Fe517       O530   2.033       .  S
Fe517       O522   2.044       .  S
Fe517       O528   2.005       .  S
Fe518       O521   2.073       .  S
Fe518       O525   2.083       .  S
Fe518       O529   2.040       .  S
Fe518       O534   2.039       .  S
Fe518       O528   1.994       .  S
Fe519       O537   2.092       .  S
Fe519       O524   2.016       .  S
Fe519       O531   2.072       .  S
Fe519       O520   2.040       .  S
Fe519       O528   2.001       .  S
O520        C527   1.264       .  A
O521        C535   1.274       .  A
O522        C527   1.265       .  A
O523        C526   1.270       .  A
O524        C536   1.257       .  A
O525        C538   1.274       .  A
C526        O531   1.272       .  A
C526       C1188   1.520       .  S
C527       C1317   1.473       .  S
O529        C532   1.265       .  A
O530        C532   1.262       .  A
C532       C1202   1.456       .  S
O533        C538   1.272       .  A
O534        C536   1.265       .  A
C535        O537   1.277       .  A
C535       C2532   1.526       .  S
C536       C1247   1.455       .  S
C538       C1359   1.525       .  S
Fe539       O555   2.069       .  S
Fe539       O545   2.050       .  S
Fe539       O552   2.132       .  S
Fe539       O544   2.137       .  S
Fe539       O550   1.958       .  S
Fe540       O543   2.099       .  S
Fe540       O547   2.064       .  S
Fe540       O551   2.075       .  S
Fe540       O556   2.024       .  S
Fe540       O550   1.952       .  S
Fe541       O559   2.081       .  S
Fe541       O546   2.030       .  S
Fe541       O553   2.082       .  S
Fe541       O542   2.055       .  S
Fe541       O550   1.957       .  S
O542        C549   1.276       .  A
O543        C557   1.286       .  A
O544        C549   1.303       .  A
O545        C548   1.263       .  A
O546        C558   1.258       .  A
O547        C560   1.271       .  A
C548        O553   1.275       .  A
C548       C2266   1.495       .  S
C549       C1331   1.462       .  S
O551        C554   1.280       .  A
O552        C554   1.300       .  A
C554       C1261   1.481       .  S
O555        C560   1.266       .  A
O556        C558   1.255       .  A
C557        O559   1.285       .  A
C557       C1345   1.519       .  S
C558       C1205   1.454       .  S
C560       C1177   1.490       .  S
C561        C562   1.369   1_655  D
C561       C1415   1.507       .  S
C561       C1457   1.498       .  S
C562       C1230   1.499       .  S
C562       C1289   1.506       .  S
C563        C564   1.372       .  D
C563       C1174   1.506       .  S
C563       C1219   1.500       .  S
C564       C1146   1.508       .  S
C564       C1160   1.509       .  S
C565        C566   1.378   1_655  D
C565       C1765   1.515       .  S
C565       C1821   1.517       .  S
C566       C1118   1.514       .  S
C566       C1132   1.518       .  S
Fe567       O583   2.051       .  S
Fe567       O573   2.082       .  S
Fe567       O580   2.160       .  S
Fe567       O572   2.116       .  S
Fe567       O578   1.967       .  S
Fe568       O571   2.092       .  S
Fe568       O575   2.076       .  S
Fe568       O579   2.034       .  S
Fe568       O584   2.055       .  S
Fe568       O578   1.983       .  S
Fe569       O587   2.081       .  S
Fe569       O574   2.105       .  S
Fe569       O581   2.040       .  S
Fe569       O570   2.163       .  S
Fe569       O578   1.946       .  S
O570        C577   1.308       .  A
O571        C585   1.277       .  A
O572        C577   1.296       .  A
O573        C576   1.265       .  A
O574        C586   1.291       .  A
O575        C588   1.275       .  A
C576        O581   1.256       .  A
C576       C1062   1.486       .  S
C577       C1104   1.496       .  S
O579        C582   1.267       .  A
O580        C582   1.301       .  A
C582       C1093   1.483       .  S
O583        C588   1.266       .  A
O584        C586   1.269       .  A
C585        O587   1.268       .  A
C585       C2661   1.503       .  S
C586       C1079   1.445       .  S
C588       C1048   1.506       .  S
Fe589       O605   2.111       .  S
Fe589       O595   2.045       .  S
Fe589       O602   2.027       .  S
Fe589       O594   2.064       .  S
Fe589       O600   1.988       .  S
Fe590       O593   2.052       .  S
Fe590       O597   2.029       .  S
Fe590       O601   2.069       .  S
Fe590       O606   2.054       .  S
Fe590       O600   1.957       .  S
Fe591       O609   2.077       .  S
Fe591       O596   2.052       .  S
Fe591       O603   2.114       .  S
Fe591       O592   2.009       .  S
Fe591       O600   2.013       .  S
O592        C599   1.256       .  A
O593        C607   1.258       .  A
O594        C599   1.270       .  A
O595        C598   1.268       .  A
O596        C608   1.266       .  A
O597        C610   1.259       .  A
C598        O603   1.280       .  A
C598       C1135   1.519       .  S
C599       C1020   1.444       .  S
O601        C604   1.272       .  A
O602        C604   1.260       .  A
C604       C1034   1.476       .  S
O605        C610   1.275       .  A
O606        C608   1.270       .  A
C607        O609   1.276       .  A
C607       C1009   1.504       .  S
C608       C1090   1.483       .  S
C610       C1163   1.500       .  S
Fe611       O627   2.110       .  S
Fe611       O617   2.100       .  S
Fe611       O624   2.021       .  S
Fe611       O616   2.048       .  S
Fe611       O622   1.967       .  S
Fe612       O615   2.093       .  S
Fe612       O619   2.078       .  S
Fe612       O623   2.042       .  S
Fe612       O628   2.039       .  S
Fe612       O622   1.968       .  S
Fe613       O631   2.016       .  S
Fe613       O618   2.155       .  S
Fe613       O625   2.027       .  S
Fe613       O614   2.128       .  S
Fe613       O622   1.941       .  S
O614        C621   1.301       .  A
O615        C629   1.277       .  A
O616        C621   1.273       .  A
O617        C620   1.281       .  A
O618        C630   1.307       .  A
O619        C632   1.286       .  A
C620        O625   1.260       .  A
C620        C978   1.515       .  S
C621        C992   1.458       .  S
O623        C626   1.257       .  A
O624        C626   1.252       .  A
C626       C1076   1.449       .  S
O627        C632   1.291       .  A
O628        C630   1.270       .  A
C629        O631   1.257       .  A
C629       C1149   1.514       .  S
C630       C1037   1.475       .  S
C632       C2675   1.516       .  S
Fe633       O649   2.067       .  S
Fe633       O639   2.118       .  S
Fe633       O646   2.076       .  S
Fe633       O638   2.040       .  S
Fe633       O644   1.954       .  S
Fe634       O637   2.068       .  S
Fe634       O641   2.116       .  S
Fe634       O645   1.996       .  S
Fe634       O650   2.082       .  S
Fe634       O644   1.955       .  S
Fe635       O653   2.085       .  S
Fe635       O640   2.079       .  S
Fe635       O647   2.017       .  S
Fe635       O636   2.187       .  S
Fe635       O644   1.941       .  S
O636        C643   1.312       .  A
O637        C651   1.274       .  A
O638        C643   1.269       .  A
O639        C642   1.281       .  A
O640        C652   1.291       .  A
O641        C654   1.290       .  A
C642        O647   1.258       .  A
C642        C964   1.500       .  S
C643       C1107   1.494       .  S
O645        C648   1.250       .  A
O646        C648   1.267       .  A
C648        C995   1.463       .  S
O649        C654   1.283       .  A
O650        C652   1.278       .  A
C651        O653   1.269       .  A
C651       C1121   1.497       .  S
C652       C1023   1.438       .  S
C654        C950   1.508       .  S
C655        C656   1.373   1_556  D
C655       C1191   1.515       .  S
C655       C1275   1.499       .  S
C656        C967   1.511       .  S
C656       C1065   1.494       .  S
C657        C658   1.375       .  D
C657        C953   1.516       .  S
C657        C981   1.505       .  S
C658        C925   1.511       .  S
C658        C939   1.518       .  S
C659        C660   1.376   1_556  D
C659       C2367   1.509       .  S
C659       C2437   1.515       .  S
C660        C894   1.504       .  S
C660        C911   1.515       .  S
C661        C662   1.370   1_545  D
C661        C866   1.491       .  S
C661        C883   1.509       .  S
C662       C1006   1.515       .  S
C662       C1051   1.499       .  S
Fe663       O679   2.102       .  S
Fe663       O669   2.097       .  S
Fe663       O676   2.060       .  S
Fe663       O668   2.041       .  S
Fe663       O674   1.970       .  S
Fe664       O667   2.021       .  S
Fe664       O671   2.016       .  S
Fe664       O675   2.135       .  S
Fe664       O680   2.114       .  S
Fe664       O674   1.935       .  S
Fe665       O683   2.098       .  S
Fe665       O670   2.067       .  S
Fe665       O677   2.082       .  S
Fe665       O666   2.031       .  S
Fe665       O674   1.968       .  S
O666        C673   1.258       .  A
O667        C681   1.258       .  A
O668        C673   1.257       .  A
O669        C672   1.287       .  A
O670        C682   1.276       .  A
O671        C684   1.256       .  A
C672        O677   1.283       .  A
C672        C936   1.517       .  S
C673        C852   1.472       .  S
O675        C678   1.302       .  A
O676        C678   1.277       .  A
C678        C841   1.473       .  S
O679        C684   1.279       .  A
O680        C682   1.298       .  A
C681        O683   1.275       .  A
C681       C2714   1.503       .  S
C682        C827   1.443       .  S
C684       C2549   1.504       .  S
Fe685       O701   2.068       .  S
Fe685       O691   2.078       .  S
Fe685       O698   2.041       .  S
Fe685       O690   2.065       .  S
Fe685       O696   1.958       .  S
Fe686       O689   2.078       .  S
Fe686       O693   2.096       .  S
Fe686       O697   2.028       .  S
Fe686       O702   2.094       .  S
Fe686       O696   1.953       .  S
Fe687       O705   2.043       .  S
Fe687       O692   2.113       .  S
Fe687       O699   2.026       .  S
Fe687       O688   2.136       .  S
Fe687       O696   1.938       .  S
O688        C695   1.302       .  A
O689        C703   1.270       .  A
O690        C695   1.279       .  A
O691        C694   1.271       .  A
O692        C704   1.299       .  A
O693        C706   1.286       .  A
C694        O699   1.255       .  A
C694        C869   1.489       .  S
C695        C796   1.470       .  S
O697        C700   1.257       .  A
O698        C700   1.258       .  A
C700        C838   1.462       .  S
O701        C706   1.282       .  A
O702        C704   1.279       .  A
C703        O705   1.262       .  A
C703        C785   1.488       .  S
C704        C810   1.454       .  S
C706       C2560   1.503       .  S
Fe707       O723   2.054       .  S
Fe707       O713   2.064       .  S
Fe707       O720   2.126       .  S
Fe707       O712   2.124       .  S
Fe707       O718   1.956       .  S
Fe708       O711   2.083       .  S
Fe708       O715   2.075       .  S
Fe708       O719   2.081       .  S
Fe708       O724   2.037       .  S
Fe708       O718   1.959       .  S
Fe709       O727   2.093       .  S
Fe709       O714   2.034       .  S
Fe709       O721   2.071       .  S
Fe709       O710   2.079       .  S
Fe709       O718   1.956       .  S
O710        C717   1.282       .  A
O711        C725   1.284       .  A
O712        C717   1.299       .  A
O713        C716   1.264       .  A
O714        C726   1.257       .  A
O715        C728   1.270       .  A
C716        O721   1.271       .  A
C716        C908   1.490       .  S
C717        C768   1.471       .  S
O719        C722   1.279       .  A
O720        C722   1.301       .  A
C722        C813   1.454       .  S
O723        C728   1.264       .  A
O724        C726   1.258       .  A
C725        O727   1.286       .  A
C725        C922   1.511       .  S
C726        C855   1.471       .  S
C728        C757   1.499       .  S
Fe729       O745   2.084       .  S
Fe729       O735   2.082       .  S
Fe729       O742   2.058       .  S
Fe729       O734   2.047       .  S
Fe729       O740   1.958       .  S
Fe730       O733   2.074       .  S
Fe730       O737   2.096       .  S
Fe730       O741   2.001       .  S
Fe730       O746   2.082       .  S
Fe730       O740   1.955       .  S
Fe731       O749   2.057       .  S
Fe731       O736   2.119       .  S
Fe731       O743   2.042       .  S
Fe731       O732   2.158       .  S
Fe731       O740   1.945       .  S
O732        C739   1.305       .  A
O733        C747   1.273       .  A
O734        C739   1.269       .  A
O735        C738   1.276       .  A
O736        C748   1.299       .  A
O737        C750   1.290       .  A
C738        O743   1.265       .  A
C738        C897   1.511       .  S
C739        C771   1.472       .  S
O741        C744   1.251       .  A
O742        C744   1.260       .  A
C744        C824   1.450       .  S
O745        C750   1.285       .  A
O746        C748   1.278       .  A
C747        O749   1.265       .  A
C747        C880   1.491       .  S
C748        C799   1.471       .  S
C750       C2731   1.514       .  S
C751        C752   1.374   1_655  D
C751       C2028   1.512       .  S
C751       C2098   1.503       .  S
C752        C754   1.504       .  S
C752        C782   1.499       .  S
C753        C754   1.408       .  A
C753        C758   1.419       .  A
C753        H760   1.082       .  S
C754        C755   1.407       .  A
C755        C756   1.397       .  A
C755        N762   1.429       .  S
C756        C757   1.407       .  A
C756        H761   1.084       .  S
C757        C758   1.416       .  A
C758        N759   1.436       .  S
N759        H763   1.046       .  S
N759        H764   1.045       .  S
N762        H765   1.045       .  S
N762        H766   1.046       .  S
C767        C768   1.395       .  A
C767        C772   1.381       .  A
C767        H774   1.084       .  S
C768        C769   1.415       .  A
C769        C770   1.413       .  A
C769        N776   1.436       .  S
C770        C771   1.404       .  A
C770        H775   1.083       .  S
C771        C772   1.414       .  A
C772        N773   1.434       .  S
N773        H777   1.044       .  S
N773        H778   1.046       .  S
N776        H779   1.045       .  S
N776        H780   1.046       .  S
C781        C782   1.398       .  A
C781        C786   1.394       .  A
C781        H788   1.080       .  S
C782        C783   1.413       .  A
C783        C784   1.417       .  A
C783        N790   1.435       .  S
C784        C785   1.408       .  A
C784        H789   1.083       .  S
C785        C786   1.419       .  A
C786        N787   1.440       .  S
N787        H791   1.045       .  S
N787        H792   1.045       .  S
N790        H793   1.044       .  S
N790        H794   1.045       .  S
C795        C796   1.401       .  A
C795        C800   1.390       .  A
C795        H802   1.084       .  S
C796        C797   1.411       .  A
C797        C798   1.406       .  A
C797        N804   1.437       .  S
C798        C799   1.405       .  A
C798        H803   1.083       .  S
C799        C800   1.411       .  A
C800        N801   1.438       .  S
N801        H805   1.046       .  S
N801        H806   1.043       .  S
N804        H807   1.045       .  S
N804        H808   1.046       .  S
C809        C810   1.398       .  A
C809        C814   1.394       .  A
C809        H816   1.085       .  S
C810        C811   1.406       .  A
C811        C812   1.401       .  A
C811        N818   1.437       .  S
C812        C813   1.399       .  A
C812        H817   1.084       .  S
C813        C814   1.414       .  A
C814        N815   1.439       .  S
N815        H819   1.045       .  S
N815        H820   1.044       .  S
N818        H821   1.045       .  S
N818        H822   1.045       .  S
C823        C824   1.398       .  A
C823        C828   1.396       .  A
C823        H830   1.079       .  S
C824        C825   1.399       .  A
C825        C826   1.388       .  A
C825        N832   1.428       .  S
C826        C827   1.393       .  A
C826        H831   1.080       .  S
C827        C828   1.412       .  A
C828        N829   1.437       .  S
N829        H833   1.044       .  S
N829        H834   1.044       .  S
N832        H835   1.041       .  S
N832        H836   1.045       .  S
C837        C838   1.404       .  A
C837        C842   1.403       .  A
C837        H844   1.083       .  S
C838        C839   1.410       .  A
C839        C840   1.380       .  A
C839        N846   1.434       .  S
C840        C841   1.405       .  A
C840        H845   1.082       .  S
C841        C842   1.413       .  A
C842        N843   1.437       .  S
N843        H847   1.046       .  S
N843        H848   1.045       .  S
N846        H849   1.043       .  S
N846        H850   1.044       .  S
C851        C852   1.404       .  A
C851        C856   1.391       .  A
C851        H858   1.084       .  S
C852        C853   1.413       .  A
C853        C854   1.399       .  A
C853        N860   1.438       .  S
C854        C855   1.405       .  A
C854        H859   1.083       .  S
C855        C856   1.408       .  A
C856        N857   1.433       .  S
N857        H861   1.045       .  S
N857        H862   1.046       .  S
N860        H863   1.045       .  S
N860        H864   1.046       .  S
C865        C866   1.394       .  A
C865        C870   1.389       .  A
C865        H872   1.079       .  S
C866        C867   1.412       .  A
C867        C868   1.416       .  A
C867        N874   1.436       .  S
C868        C869   1.409       .  A
C868        H873   1.083       .  S
C869        C870   1.423       .  A
C870        N871   1.435       .  S
N871        H875   1.043       .  S
N871        H876   1.046       .  S
N874        H877   1.045       .  S
N874        H878   1.045       .  S
C879        C880   1.403       .  A
C879        C884   1.404       .  A
C879        H886   1.084       .  S
C880        C881   1.419       .  A
C881        C882   1.411       .  A
C881        N888   1.432       .  S
C882        C883   1.407       .  A
C882        H887   1.083       .  S
C883        C884   1.415       .  A
C884        N885   1.433       .  S
N885        H889   1.046       .  S
N885        H890   1.043       .  S
N888        H891   1.043       .  S
N888        H892   1.045       .  S
C893        C894   1.411       .  A
C893        C898   1.418       .  A
C893        H900   1.083       .  S
C894        C895   1.403       .  A
C895        C896   1.395       .  A
C895        N902   1.437       .  S
C896        C897   1.417       .  A
C896        H901   1.082       .  S
C897        C898   1.423       .  A
C898        N899   1.438       .  S
N899        H903   1.046       .  S
N899        H904   1.041       .  S
N902        H905   1.045       .  S
N902        H906   1.045       .  S
C907        C908   1.403       .  A
C907        C912   1.407       .  A
C907        H914   1.084       .  S
C908        C909   1.414       .  A
C909        C910   1.416       .  A
C909        N916   1.437       .  S
C910        C911   1.407       .  A
C910        H915   1.083       .  S
C911        C912   1.420       .  A
C912        N913   1.436       .  S
N913        H917   1.045       .  S
N913        H918   1.041       .  S
N916        H919   1.045       .  S
N916        H920   1.046       .  S
C921        C922   1.410       .  A
C921        C926   1.416       .  A
C921        H928   1.083       .  S
C922        C923   1.422       .  A
C923        C924   1.413       .  A
C923        N930   1.438       .  S
C924        C925   1.402       .  A
C924        H929   1.078       .  S
C925        C926   1.414       .  A
C926        N927   1.437       .  S
N927        H931   1.045       .  S
N927        H932   1.044       .  S
N930        H933   1.045       .  S
N930        H934   1.046       .  S
C935        C936   1.408       .  A
C935        C940   1.415       .  A
C935        H942   1.083       .  S
C936        C937   1.423       .  A
C937        C938   1.417       .  A
C937        N944   1.437       .  S
C938        C939   1.404       .  A
C938        H943   1.081       .  S
C939        C940   1.417       .  A
C940        N941   1.434       .  S
N941        H945   1.045       .  S
N941        H946   1.042       .  S
N944        H947   1.045       .  S
N944        H948   1.046       .  S
C949        C950   1.413       .  A
C949        C954   1.410       .  A
C949        H956   1.083       .  S
C950        C951   1.422       .  A
C951        C952   1.414       .  A
C951        N958   1.436       .  S
C952        C953   1.411       .  A
C952        H957   1.083       .  S
C953        C954   1.406       .  A
C954        N955   1.432       .  S
N955        H959   1.046       .  S
N955        H960   1.045       .  S
N958        H961   1.043       .  S
N958        H962   1.045       .  S
C963        C964   1.412       .  A
C963        C968   1.402       .  A
C963        H970   1.084       .  S
C964        C965   1.411       .  A
C965        C966   1.420       .  A
C965        N972   1.436       .  S
C966        C967   1.414       .  A
C966        H971   1.080       .  S
C967        C968   1.407       .  A
C968        N969   1.436       .  S
N969        H973   1.045       .  S
N969        H974   1.039       .  S
N972        H975   1.045       .  S
N972        H976   1.046       .  S
C977        C978   1.420       .  A
C977        C982   1.401       .  A
C977        H984   1.081       .  S
C978        C979   1.417       .  A
C979        C980   1.417       .  A
C979        N986   1.430       .  S
C980        C981   1.414       .  A
C980        H985   1.083       .  S
C981        C982   1.402       .  A
C982        N983   1.440       .  S
N983        H987   1.045       .  S
N983        H988   1.043       .  S
N986        H989   1.045       .  S
N986        H990   1.045       .  S
C991        C992   1.403       .  A
C991        C996   1.389       .  A
C991        H998   1.084       .  S
C992        C993   1.404       .  A
C993        C994   1.401       .  A
C993       N1000   1.437       .  S
C994        C995   1.409       .  A
C994        H999   1.084       .  S
C995        C996   1.402       .  A
C996        N997   1.434       .  S
N997       H1001   1.046       .  S
N997       H1002   1.045       .  S
N1000      H1003   1.043       .  S
N1000      H1004   1.046       .  S
C1005      C1006   1.413       .  A
C1005      C1010   1.413       .  A
C1005      H1012   1.078       .  S
C1006      C1007   1.402       .  A
C1007      C1008   1.407       .  A
C1007      N1014   1.432       .  S
C1008      C1009   1.416       .  A
C1008      H1013   1.083       .  S
C1009      C1010   1.410       .  A
C1010      N1011   1.437       .  S
N1011      H1015   1.046       .  S
N1011      H1016   1.046       .  S
N1014      H1017   1.045       .  S
N1014      H1018   1.045       .  S
C1019      C1020   1.396       .  A
C1019      C1024   1.389       .  A
C1019      H1026   1.082       .  S
C1020      C1021   1.415       .  A
C1021      C1022   1.387       .  A
C1021      N1028   1.439       .  S
C1022      C1023   1.393       .  A
C1022      H1027   1.085       .  S
C1023      C1024   1.408       .  A
C1024      N1025   1.431       .  S
N1025      H1029   1.045       .  S
N1025      H1030   1.042       .  S
N1028      H1031   1.042       .  S
N1028      H1032   1.046       .  S
C1033      C1034   1.397       .  A
C1033      C1038   1.386       .  A
C1033      H1040   1.084       .  S
C1034      C1035   1.421       .  A
C1035      C1036   1.405       .  A
C1035      N1042   1.438       .  S
C1036      C1037   1.399       .  A
C1036      H1041   1.082       .  S
C1037      C1038   1.418       .  A
C1038      N1039   1.435       .  S
N1039      H1043   1.045       .  S
N1039      H1044   1.046       .  S
N1042      H1045   1.045       .  S
N1042      H1046   1.046       .  S
C1047      C1048   1.417       .  A
C1047      C1052   1.396       .  A
C1047      H1054   1.082       .  S
C1048      C1049   1.420       .  A
C1049      C1050   1.414       .  A
C1049      N1056   1.435       .  S
C1050      C1051   1.412       .  A
C1050      H1055   1.083       .  S
C1051      C1052   1.400       .  A
C1052      N1053   1.438       .  S
N1053      H1057   1.038       .  S
N1053      H1058   1.041       .  S
N1056      H1059   1.042       .  S
N1056      H1060   1.045       .  S
C1061      C1062   1.402       .  A
C1061      C1066   1.406       .  A
C1061      H1068   1.083       .  S
C1062      C1063   1.421       .  A
C1063      C1064   1.401       .  A
C1063      N1070   1.439       .  S
C1064      C1065   1.397       .  A
C1064      H1069   1.081       .  S
C1065      C1066   1.415       .  A
C1066      N1067   1.434       .  S
N1067      H1071   1.046       .  S
N1067      H1072   1.042       .  S
N1070      H1073   1.045       .  S
N1070      H1074   1.046       .  S
C1075      C1076   1.402       .  A
C1075      C1080   1.398       .  A
C1075      H1082   1.083       .  S
C1076      C1077   1.402       .  A
C1077      C1078   1.382       .  A
C1077      N1084   1.430       .  S
C1078      C1079   1.397       .  A
C1078      H1083   1.083       .  S
C1079      C1080   1.413       .  A
C1080      N1081   1.435       .  S
N1081      H1085   1.045       .  S
N1081      H1086   1.042       .  S
N1084      H1087   1.038       .  S
N1084      H1088   1.044       .  S
C1089      C1090   1.413       .  A
C1089      C1094   1.405       .  A
C1089      H1096   1.083       .  S
C1090      C1091   1.412       .  A
C1091      C1092   1.393       .  A
C1091      N1098   1.440       .  S
C1092      C1093   1.409       .  A
C1092      H1097   1.084       .  S
C1093      C1094   1.404       .  A
C1094      N1095   1.430       .  S
N1095      H1099   1.041       .  S
N1095      H1100   1.046       .  S
N1098      H1101   1.045       .  S
N1098      H1102   1.046       .  S
C1103      C1104   1.398       .  A
C1103      C1108   1.398       .  A
C1103      H1110   1.083       .  S
C1104      C1105   1.423       .  A
C1105      C1106   1.411       .  A
C1105      N1112   1.434       .  S
C1106      C1107   1.399       .  A
C1106      H1111   1.083       .  S
C1107      C1108   1.427       .  A
C1108      N1109   1.439       .  S
N1109      H1113   1.046       .  S
N1109      H1114   1.046       .  S
N1112      H1115   1.035       .  S
N1112      H1116   1.046       .  S
C1117      C1118   1.406       .  A
C1117      C1122   1.406       .  A
C1117      H1124   1.082       .  S
C1118      C1119   1.413       .  A
C1119      C1120   1.418       .  A
C1119      N1126   1.436       .  S
C1120      C1121   1.409       .  A
C1120      H1125   1.083       .  S
C1121      C1122   1.419       .  A
C1122      N1123   1.439       .  S
N1123      H1127   1.046       .  S
N1123      H1128   1.044       .  S
N1126      H1129   1.045       .  S
N1126      H1130   1.045       .  S
C1131      C1132   1.405       .  A
C1131      C1136   1.418       .  A
C1131      H1138   1.083       .  S
C1132      C1133   1.415       .  A
C1133      C1134   1.418       .  A
C1133      N1140   1.437       .  S
C1134      C1135   1.411       .  A
C1134      H1139   1.083       .  S
C1135      C1136   1.422       .  A
C1136      N1137   1.437       .  S
N1137      H1141   1.046       .  S
N1137      H1142   1.046       .  S
N1140      H1143   1.044       .  S
N1140      H1144   1.045       .  S
C1145      C1146   1.416       .  A
C1145      C1150   1.420       .  A
C1145      H1152   1.083       .  S
C1146      C1147   1.401       .  A
C1147      C1148   1.389       .  A
C1147      N1154   1.432       .  S
C1148      C1149   1.419       .  A
C1148      H1153   1.083       .  S
C1149      C1150   1.421       .  A
C1150      N1151   1.435       .  S
N1151      H1155   1.045       .  S
N1151      H1156   1.041       .  S
N1154      H1157   1.045       .  S
N1154      H1158   1.046       .  S
C1159      C1160   1.410       .  A
C1159      C1164   1.404       .  A
C1159      H1166   1.081       .  S
C1160      C1161   1.402       .  A
C1161      C1162   1.408       .  A
C1161      N1168   1.432       .  S
C1162      C1163   1.415       .  A
C1162      H1167   1.083       .  S
C1163      C1164   1.415       .  A
C1164      N1165   1.432       .  S
N1165      H1169   1.044       .  S
N1165      H1170   1.046       .  S
N1168      H1171   1.045       .  S
N1168      H1172   1.045       .  S
C1173      C1174   1.405       .  A
C1173      C1178   1.415       .  A
C1173      H1180   1.083       .  S
C1174      C1175   1.416       .  A
C1175      C1176   1.405       .  A
C1175      N1182   1.437       .  S
C1176      C1177   1.404       .  A
C1176      H1181   1.084       .  S
C1177      C1178   1.416       .  A
C1178      N1179   1.437       .  S
N1179      H1183   1.046       .  S
N1179      H1184   1.045       .  S
N1182      H1185   1.043       .  S
N1182      H1186   1.046       .  S
C1187      C1188   1.413       .  A
C1187      C1192   1.413       .  A
C1187      H1194   1.083       .  S
C1188      C1189   1.425       .  A
C1189      C1190   1.411       .  A
C1189      N1196   1.432       .  S
C1190      C1191   1.406       .  A
C1190      H1195   1.084       .  S
C1191      C1192   1.410       .  A
C1192      N1193   1.431       .  S
N1193      H1197   1.044       .  S
N1193      H1198   1.045       .  S
N1196      H1199   1.045       .  S
N1196      H1200   1.044       .  S
C1201      C1202   1.400       .  A
C1201      C1206   1.393       .  A
C1201      H1208   1.084       .  S
C1202      C1203   1.412       .  A
C1203      C1204   1.392       .  A
C1203      N1210   1.440       .  S
C1204      C1205   1.399       .  A
C1204      H1209   1.084       .  S
C1205      C1206   1.410       .  A
C1206      N1207   1.438       .  S
N1207      H1211   1.046       .  S
N1207      H1212   1.045       .  S
N1210      H1213   1.045       .  S
N1210      H1214   1.046       .  S
C1215      C1216   1.410       .  A
C1215      C1220   1.421       .  A
C1215      H1222   1.083       .  S
C1216      C1217   1.428       .  A
C1217      C1218   1.390       .  A
C1217      N1224   1.435       .  S
C1218      C1219   1.393       .  A
C1218      H1223   1.079       .  S
C1219      C1220   1.414       .  A
C1220      N1221   1.436       .  S
N1221      H1225   1.045       .  S
N1221      H1226   1.045       .  S
N1224      H1227   1.046       .  S
N1224      H1228   1.044       .  S
C1229      C1230   1.396       .  A
C1229      C1234   1.395       .  A
C1229      H1236   1.083       .  S
C1230      C1231   1.423       .  A
C1231      C1232   1.414       .  A
C1231      N1238   1.436       .  S
C1232      C1233   1.406       .  A
C1232      H1237   1.083       .  S
C1233      C1234   1.422       .  A
C1234      N1235   1.438       .  S
N1235      H1239   1.044       .  S
N1235      H1240   1.045       .  S
N1238      H1241   1.043       .  S
N1238      H1242   1.045       .  S
C1243      C1244   1.400       .  A
C1243      C1248   1.384       .  A
C1243      H1250   1.084       .  S
C1244      C1245   1.407       .  A
C1245      C1246   1.389       .  A
C1245      N1252   1.435       .  S
C1246      C1247   1.400       .  A
C1246      H1251   1.084       .  S
C1247      C1248   1.414       .  A
C1248      N1249   1.431       .  S
N1249      H1253   1.044       .  S
N1249      H1254   1.039       .  S
N1252      H1255   1.046       .  S
N1252      H1256   1.046       .  S
C1257      C1258   1.408       .  A
C1257      C1262   1.414       .  A
C1257      H1264   1.083       .  S
C1258      C1259   1.419       .  A
C1259      C1260   1.384       .  A
C1259      N1266   1.440       .  S
C1260      C1261   1.398       .  A
C1260      H1265   1.084       .  S
C1261      C1262   1.414       .  A
C1262      N1263   1.435       .  S
N1263      H1267   1.046       .  S
N1263      H1268   1.042       .  S
N1266      H1269   1.046       .  S
N1266      H1270   1.046       .  S
C1271      C1272   1.412       .  A
C1271      C1276   1.413       .  A
C1271      H1278   1.083       .  S
C1272      C1273   1.423       .  A
C1273      C1274   1.402       .  A
C1273      N1280   1.432       .  S
C1274      C1275   1.400       .  A
C1274      H1279   1.080       .  S
C1275      C1276   1.409       .  A
C1276      N1277   1.438       .  S
N1277      H1281   1.045       .  S
N1277      H1282   1.042       .  S
N1280      H1283   1.045       .  S
N1280      H1284   1.044       .  S
C1285      C1286   1.413       .  A
C1285      C1290   1.407       .  A
C1285      H1292   1.083       .  S
C1286      C1287   1.421       .  A
C1287      C1288   1.410       .  A
C1287      N1294   1.431       .  S
C1288      C1289   1.408       .  A
C1288      H1293   1.083       .  S
C1289      C1290   1.404       .  A
C1290      N1291   1.430       .  S
N1291      H1295   1.046       .  S
N1291      H1296   1.045       .  S
N1294      H1297   1.046       .  S
N1294      H1298   1.045       .  S
C1299      C1300   1.406       .  A
C1299      C1304   1.399       .  A
C1299      H1306   1.084       .  S
C1300      C1301   1.412       .  A
C1301      C1302   1.396       .  A
C1301      N1308   1.438       .  S
C1302      C1303   1.400       .  A
C1302      H1307   1.085       .  S
C1303      C1304   1.404       .  A
C1304      N1305   1.436       .  S
N1305      H1309   1.046       .  S
N1305      H1310   1.045       .  S
N1308      H1311   1.045       .  S
N1308      H1312   1.046       .  S
C1313      C1314   1.402       .  A
C1313      C1318   1.392       .  A
C1313      H1320   1.083       .  S
C1314      C1315   1.415       .  A
C1315      C1316   1.398       .  A
C1315      N1322   1.439       .  S
C1316      C1317   1.404       .  A
C1316      H1321   1.083       .  S
C1317      C1318   1.414       .  A
C1318      N1319   1.439       .  S
N1319      H1323   1.046       .  S
N1319      H1324   1.046       .  S
N1322      H1325   1.043       .  S
N1322      H1326   1.046       .  S
C1327      C1328   1.404       .  A
C1327      C1332   1.401       .  A
C1327      H1334   1.083       .  S
C1328      C1329   1.410       .  A
C1329      C1330   1.392       .  A
C1329      N1336   1.439       .  S
C1330      C1331   1.402       .  A
C1330      H1335   1.084       .  S
C1331      C1332   1.407       .  A
C1332      N1333   1.438       .  S
N1333      H1337   1.046       .  S
N1333      H1338   1.046       .  S
N1336      H1339   1.045       .  S
N1336      H1340   1.046       .  S
C1341      C1342   1.404       .  A
C1341      C1346   1.419       .  A
C1341      H1348   1.083       .  S
C1342      C1343   1.411       .  A
C1343      C1344   1.415       .  A
C1343      N1350   1.431       .  S
C1344      C1345   1.411       .  A
C1344      H1349   1.083       .  S
C1345      C1346   1.424       .  A
C1346      N1347   1.437       .  S
N1347      H1351   1.046       .  S
N1347      H1352   1.045       .  S
N1350      H1353   1.045       .  S
N1350      H1354   1.045       .  S
C1355      C1356   1.405       .  A
C1355      C1360   1.413       .  A
C1355      H1362   1.083       .  S
C1356      C1357   1.413       .  A
C1357      C1358   1.418       .  A
C1357      N1364   1.436       .  S
C1358      C1359   1.413       .  A
C1358      H1363   1.083       .  S
C1359      C1360   1.427       .  A
C1360      N1361   1.432       .  S
N1361      H1365   1.044       .  S
N1361      H1366   1.045       .  S
N1364      H1367   1.043       .  S
N1364      H1368   1.045       .  S
C1369      C1370   1.413       .  A
C1369      C1374   1.420       .  A
C1369      H1376   1.083       .  S
C1370      C1371   1.424       .  A
C1371      C1372   1.417       .  A
C1371      N1378   1.437       .  S
C1372      C1373   1.404       .  A
C1372      H1377   1.079       .  S
C1373      C1374   1.413       .  A
C1374      N1375   1.432       .  S
N1375      H1379   1.043       .  S
N1375      H1380   1.045       .  S
N1378      H1381   1.046       .  S
N1378      H1382   1.046       .  S
C1383      C1384   1.412       .  A
C1383      C1388   1.414       .  A
C1383      H1390   1.083       .  S
C1384      C1385   1.425       .  A
C1385      C1386   1.415       .  A
C1385      N1392   1.431       .  S
C1386      C1387   1.409       .  A
C1386      H1391   1.083       .  S
C1387      C1388   1.413       .  A
C1388      N1389   1.429       .  S
N1389      H1393   1.046       .  S
N1389      H1394   1.045       .  S
N1392      H1395   1.045       .  S
N1392      H1396   1.045       .  S
C1397      C1398   1.397       .  A
C1397      C1402   1.395       .  A
C1397      H1404   1.084       .  S
C1398      C1399   1.406       .  A
C1399      C1400   1.383       .  A
C1399      N1406   1.439       .  S
C1400      C1401   1.391       .  A
C1400      H1405   1.070       .  S
C1401      C1402   1.409       .  A
C1402      N1403   1.436       .  S
N1403      H1407   1.044       .  S
N1403      H1408   1.045       .  S
N1406      H1409   1.044       .  S
N1406      H1410   1.046       .  S
C1411      C1412   1.409       .  A
C1411      C1416   1.399       .  A
C1411      H1418   1.085       .  S
C1412      C1413   1.430       .  A
C1413      C1414   1.415       .  A
C1413      N1420   1.438       .  S
C1414      C1415   1.405       .  A
C1414      H1419   1.082       .  S
C1415      C1416   1.409       .  A
C1416      N1417   1.431       .  S
N1417      H1421   1.045       .  S
N1417      H1422   1.046       .  S
N1420      H1423   1.037       .  S
N1420      H1424   1.046       .  S
C1425      C1426   1.404       .  A
C1425      C1430   1.400       .  A
C1425      H1432   1.083       .  S
C1426      C1427   1.416       .  A
C1427      C1428   1.394       .  A
C1427      N1434   1.439       .  S
C1428      C1429   1.403       .  A
C1428      H1433   1.083       .  S
C1429      C1430   1.414       .  A
C1430      N1431   1.438       .  S
N1431      H1435   1.046       .  S
N1431      H1436   1.046       .  S
N1434      H1437   1.043       .  S
N1434      H1438   1.046       .  S
C1439      C1440   1.397       .  A
C1439      C1444   1.383       .  A
C1439      H1446   1.085       .  S
C1440      C1441   1.404       .  A
C1441      C1442   1.406       .  A
C1441      N1448   1.437       .  S
C1442      C1443   1.411       .  A
C1442      H1447   1.083       .  S
C1443      C1444   1.412       .  A
C1444      N1445   1.434       .  S
N1445      H1449   1.046       .  S
N1445      H1450   1.038       .  S
N1448      H1451   1.044       .  S
N1448      H1452   1.046       .  S
C1453      C1454   1.409       .  A
C1453      C1458   1.420       .  A
C1453      H1460   1.083       .  S
C1454      C1455   1.428       .  A
C1455      C1456   1.391       .  A
C1455      N1462   1.435       .  S
C1456      C1457   1.394       .  A
C1456      H1461   1.080       .  S
C1457      C1458   1.414       .  A
C1458      N1459   1.436       .  S
N1459      H1463   1.045       .  S
N1459      H1464   1.044       .  S
N1462      H1465   1.044       .  S
N1462      H1466   1.045       .  S
C1467      C1468   1.404       .  A
C1467      C1472   1.396       .  A
C1467      H1474   1.084       .  S
C1468      C1469   1.413       .  A
C1469      C1470   1.390       .  A
C1469      N1476   1.439       .  S
C1470      C1471   1.401       .  A
C1470      H1475   1.083       .  S
C1471      C1472   1.411       .  A
C1472      N1473   1.439       .  S
N1473      H1477   1.046       .  S
N1473      H1478   1.046       .  S
N1476      H1479   1.043       .  S
N1476      H1480   1.046       .  S
C1481      C1482   1.400       .  A
C1481      C1486   1.391       .  A
C1481      H1488   1.081       .  S
C1482      C1483   1.412       .  A
C1483      C1484   1.403       .  A
C1483      N1490   1.437       .  S
C1484      C1485   1.401       .  A
C1484      H1489   1.084       .  S
C1485      C1486   1.404       .  A
C1486      N1487   1.434       .  S
N1487      H1491   1.046       .  S
N1487      H1492   1.046       .  S
N1490      H1493   1.045       .  S
N1490      H1494   1.046       .  S
C1495      C1496   1.399       .  A
C1495      C1500   1.394       .  A
C1495      H1502   1.085       .  S
C1496      C1497   1.408       .  A
C1497      C1498   1.405       .  A
C1497      N1504   1.437       .  S
C1498      C1499   1.406       .  A
C1498      H1503   1.084       .  S
C1499      C1500   1.415       .  A
C1500      N1501   1.439       .  S
N1501      H1505   1.046       .  S
N1501      H1506   1.045       .  S
N1504      H1507   1.045       .  S
N1504      H1508   1.046       .  S
C1509      C1510   1.410       .  A
C1509      C1514   1.408       .  A
C1509      H1516   1.084       .  S
C1510      C1511   1.413       .  A
C1511      C1512   1.404       .  A
C1511      N1518   1.425       .  S
C1512      C1513   1.406       .  A
C1512      H1517   1.084       .  S
C1513      C1514   1.422       .  A
C1514      N1515   1.432       .  S
N1515      H1519   1.044       .  S
N1515      H1520   1.045       .  S
N1518      H1521   1.046       .  S
N1518      H1522   1.046       .  S
C1523      C1524   1.400       .  A
C1523      C1528   1.403       .  A
C1523      H1530   1.084       .  S
C1524      C1525   1.429       .  A
C1525      C1526   1.411       .  A
C1525      N1532   1.433       .  S
C1526      C1527   1.401       .  A
C1526      H1531   1.084       .  S
C1527      C1528   1.420       .  A
C1528      N1529   1.439       .  S
N1529      H1533   1.046       .  S
N1529      H1534   1.045       .  S
N1532      H1535   1.041       .  S
N1532      H1536   1.045       .  S
C1537      C1538   1.408       .  A
C1537      C1542   1.415       .  A
C1537      H1544   1.081       .  S
C1538      C1539   1.413       .  A
C1539      C1540   1.401       .  A
C1539      N1546   1.437       .  S
C1540      C1541   1.404       .  A
C1540      H1545   1.084       .  S
C1541      C1542   1.413       .  A
C1542      N1543   1.437       .  S
N1543      H1547   1.046       .  S
N1543      H1548   1.045       .  S
N1546      H1549   1.043       .  S
N1546      H1550   1.045       .  S
C1551      C1552   1.404       .  A
C1551      C1556   1.395       .  A
C1551      H1558   1.083       .  S
C1552      C1553   1.413       .  A
C1553      C1554   1.395       .  A
C1553      N1560   1.439       .  S
C1554      C1555   1.404       .  A
C1554      H1559   1.083       .  S
C1555      C1556   1.414       .  A
C1556      N1557   1.439       .  S
N1557      H1561   1.046       .  S
N1557      H1562   1.044       .  S
N1560      H1563   1.046       .  S
N1560      H1564   1.046       .  S
C1565      C1566   1.413       .  A
C1565      C1570   1.390       .  A
C1565      H1572   1.084       .  S
C1566      C1567   1.414       .  A
C1567      C1568   1.423       .  A
C1567      N1574   1.435       .  S
C1568      C1569   1.414       .  A
C1568      H1573   1.082       .  S
C1569      C1570   1.399       .  A
C1570      N1571   1.430       .  S
N1571      H1575   1.045       .  S
N1571      H1576   1.045       .  S
N1574      H1577   1.045       .  S
N1574      H1578   1.046       .  S
C1579      C1580   1.393       .  A
C1579      C1584   1.390       .  A
C1579      H1586   1.085       .  S
C1580      C1581   1.400       .  A
C1581      C1582   1.399       .  A
C1581      N1588   1.437       .  S
C1582      C1583   1.408       .  A
C1582      H1587   1.084       .  S
C1583      C1584   1.416       .  A
C1584      N1585   1.433       .  S
N1585      H1589   1.044       .  S
N1585      H1590   1.043       .  S
N1588      H1591   1.045       .  S
N1588      H1592   1.042       .  S
C1593      C1594   1.400       .  A
C1593      C1598   1.380       .  A
C1593      H1600   1.079       .  S
C1594      C1595   1.408       .  A
C1595      C1596   1.413       .  A
C1595      N1602   1.436       .  S
C1596      C1597   1.408       .  A
C1596      H1601   1.083       .  S
C1597      C1598   1.401       .  A
C1598      N1599   1.434       .  S
N1599      H1603   1.045       .  S
N1599      H1604   1.046       .  S
N1602      H1605   1.045       .  S
N1602      H1606   1.046       .  S
C1607      C1608   1.410       .  A
C1607      C1612   1.399       .  A
C1607      H1614   1.083       .  S
C1608      C1609   1.411       .  A
C1609      C1610   1.391       .  A
C1609      N1616   1.439       .  S
C1610      C1611   1.402       .  A
C1610      H1615   1.082       .  S
C1611      C1612   1.405       .  A
C1612      N1613   1.437       .  S
N1613      H1617   1.046       .  S
N1613      H1618   1.045       .  S
N1616      H1619   1.045       .  S
N1616      H1620   1.046       .  S
C1621      C1622   1.398       .  A
C1621      C1626   1.392       .  A
C1621      H1628   1.085       .  S
C1622      C1623   1.410       .  A
C1623      C1624   1.402       .  A
C1623      N1630   1.437       .  S
C1624      C1625   1.400       .  A
C1624      H1629   1.084       .  S
C1625      C1626   1.410       .  A
C1626      N1627   1.438       .  S
N1627      H1631   1.046       .  S
N1627      H1632   1.045       .  S
N1630      H1633   1.046       .  S
N1630      H1634   1.046       .  S
C1635      C1636   1.400       .  A
C1635      C1640   1.394       .  A
C1635      H1642   1.084       .  S
C1636      C1637   1.418       .  A
C1637      C1638   1.398       .  A
C1637      N1644   1.438       .  S
C1638      C1639   1.397       .  A
C1638      H1643   1.084       .  S
C1639      C1640   1.407       .  A
C1640      N1641   1.438       .  S
N1641      H1645   1.046       .  S
N1641      H1646   1.044       .  S
N1644      H1647   1.041       .  S
N1644      H1648   1.044       .  S
C1649      C1650   1.423       .  A
C1649      C1654   1.397       .  A
C1649      H1656   1.081       .  S
C1650      C1651   1.422       .  A
C1651      C1652   1.423       .  A
C1651      N1658   1.435       .  S
C1652      C1653   1.418       .  A
C1652      H1657   1.083       .  S
C1653      C1654   1.401       .  A
C1654      N1655   1.437       .  S
N1655      H1659   1.044       .  S
N1655      H1660   1.043       .  S
N1658      H1661   1.041       .  S
N1658      H1662   1.045       .  S
C1663      C1664   1.399       .  A
C1663      C1668   1.412       .  A
C1663      H1670   1.084       .  S
C1664      C1665   1.420       .  A
C1665      C1666   1.418       .  A
C1665      N1672   1.436       .  S
C1666      C1667   1.408       .  A
C1666      H1671   1.083       .  S
C1667      C1668   1.428       .  A
C1668      N1669   1.438       .  S
N1669      H1673   1.046       .  S
N1669      H1674   1.044       .  S
N1672      H1675   1.040   1_545  S
N1672      H1676   1.045       .  S
C1677      C1678   1.408       .  A
C1677      C1682   1.415       .  A
C1677      H1684   1.083       .  S
C1678      C1679   1.411       .  A
C1679      C1680   1.412       .  A
C1679      N1686   1.435       .  S
C1680      C1681   1.411       .  A
C1680      H1685   1.083       .  S
C1681      C1682   1.425       .  A
C1682      N1683   1.439       .  S
N1683      H1687   1.046       .  S
N1683      H1688   1.041       .  S
N1686      H1689   1.044       .  S
N1686      H1690   1.045       .  S
C1691      C1692   1.409       .  A
C1691      C1696   1.416       .  A
C1691      H1698   1.083       .  S
C1692      C1693   1.428       .  A
C1693      C1694   1.410       .  A
C1693      N1700   1.432       .  S
C1694      C1695   1.403       .  A
C1694      H1699   1.084       .  S
C1695      C1696   1.418       .  A
C1696      N1697   1.437       .  S
N1697      H1701   1.045       .  S
N1697      H1702   1.042       .  S
N1700      H1703   1.041       .  S
N1700      H1704   1.045       .  S
C1705      C1706   1.409       .  A
C1705      C1710   1.411       .  A
C1705      H1712   1.080       .  S
C1706      C1707   1.408       .  A
C1707      C1708   1.410       .  A
C1707      N1714   1.431       .  S
C1708      C1709   1.413       .  A
C1708      H1713   1.083       .  S
C1709      C1710   1.422       .  A
C1710      N1711   1.439       .  S
N1711      H1715   1.046       .  S
N1711      H1716   1.042       .  S
N1714      H1717   1.046       .  S
N1714      H1718   1.045       .  S
C1719      C1720   1.411       .  A
C1719      C1724   1.422       .  A
C1719      H1726   1.083       .  S
C1720      C1721   1.404       .  A
C1721      C1722   1.404       .  A
C1721      N1728   1.439       .  S
C1722      C1723   1.416       .  A
C1722      H1727   1.083       .  S
C1723      C1724   1.415       .  A
C1724      N1725   1.436       .  S
N1725      H1729   1.046       .  S
N1725      H1730   1.045       .  S
N1728      H1731   1.045       .  S
N1728      H1732   1.045       .  S
C1733      C1734   1.412       .  A
C1733      C1738   1.414       .  A
C1733      H1740   1.083       .  S
C1734      C1735   1.424       .  A
C1735      C1736   1.407       .  A
C1735      N1742   1.432       .  S
C1736      C1737   1.405       .  A
C1736      H1741   1.084       .  S
C1737      C1738   1.412       .  A
C1738      N1739   1.438       .  S
N1739      H1743   1.045       .  S
N1739      H1744   1.045       .  S
N1742      H1745   1.045       .  S
N1742      H1746   1.045       .  S
C1747      C1748   1.403       .  A
C1747      C1752   1.394       .  A
C1747      H1754   1.083       .  S
C1748      C1749   1.411       .  A
C1749      C1750   1.394       .  A
C1749      N1756   1.438       .  S
C1750      C1751   1.405       .  A
C1750      H1755   1.083       .  S
C1751      C1752   1.414       .  A
C1752      N1753   1.439       .  S
N1753      H1757   1.046       .  S
N1753      H1758   1.044       .  S
N1756      H1759   1.045       .  S
N1756      H1760   1.046       .  S
C1761      C1762   1.413       .  A
C1761      C1766   1.414       .  A
C1761      H1768   1.083       .  S
C1762      C1763   1.421       .  A
C1763      C1764   1.410       .  A
C1763      N1770   1.432       .  S
C1764      C1765   1.408       .  A
C1764      H1769   1.083       .  S
C1765      C1766   1.410       .  A
C1766      N1767   1.435       .  S
N1767      H1771   1.045       .  S
N1767      H1772   1.045       .  S
N1770      H1773   1.045       .  S
N1770      H1774   1.044       .  S
C1775      C1776   1.414       .  A
C1775      C1780   1.414       .  A
C1775      H1782   1.083       .  S
C1776      C1777   1.421       .  A
C1777      C1778   1.408       .  A
C1777      N1784   1.432       .  S
C1778      C1779   1.406       .  A
C1778      H1783   1.082       .  S
C1779      C1780   1.409       .  A
C1780      N1781   1.437       .  S
N1781      H1785   1.045       .  S
N1781      H1786   1.045       .  S
N1784      H1787   1.045       .  S
N1784      H1788   1.044       .  S
C1789      C1790   1.395       .  A
C1789      C1794   1.390       .  A
C1789      H1796   1.084       .  S
C1790      C1791   1.416       .  A
C1791      C1792   1.405       .  A
C1791      N1798   1.438       .  S
C1792      C1793   1.403       .  A
C1792      H1797   1.083       .  S
C1793      C1794   1.423       .  A
C1794      N1795   1.439       .  S
N1795      H1799   1.046       .  S
N1795      H1800   1.044       .  S
N1798      H1801   1.045       .  S
N1798      H1802   1.046       .  S
C1803      C1804   1.404       .  A
C1803      C1808   1.396       .  A
C1803      H1810   1.084       .  S
C1804      C1805   1.413       .  A
C1805      C1806   1.393       .  A
C1805      N1812   1.439       .  S
C1806      C1807   1.403       .  A
C1806      H1811   1.083       .  S
C1807      C1808   1.413       .  A
C1808      N1809   1.439       .  S
N1809      H1813   1.046       .  S
N1809      H1814   1.046       .  S
N1812      H1815   1.046       .  S
N1812      H1816   1.046       .  S
C1817      C1818   1.409       .  A
C1817      C1822   1.423       .  A
C1817      H1824   1.083       .  S
C1818      C1819   1.430       .  A
C1819      C1820   1.405       .  A
C1819      N1826   1.440       .  S
C1820      C1821   1.395       .  A
C1820      H1825   1.083       .  S
C1821      C1822   1.427       .  A
C1822      N1823   1.435       .  S
N1823      H1827   1.045       .  S
N1823      H1828   1.042       .  S
N1826      H1829   1.046       .  S
N1826      H1830   1.046       .  S
C1831      C1832   1.400       .  A
C1831      C1836   1.391       .  A
C1831      H1838   1.083       .  S
C1832      C1833   1.410       .  A
C1833      C1834   1.405       .  A
C1833      N1840   1.437       .  S
C1834      C1835   1.403       .  A
C1834      H1839   1.084       .  S
C1835      C1836   1.404       .  A
C1836      N1837   1.434       .  S
N1837      H1841   1.046       .  S
N1837      H1842   1.046       .  S
N1840      H1843   1.045       .  S
N1840      H1844   1.046       .  S
C1845      C1846   1.395       .  A
C1845      C1850   1.395       .  A
C1845      H1852   1.084       .  S
C1846      C1847   1.404       .  A
C1847      C1848   1.391       .  A
C1847      N1854   1.439       .  S
C1848      C1849   1.403       .  A
C1848      H1853   1.085       .  S
C1849      C1850   1.422       .  A
C1850      N1851   1.439       .  S
N1851      H1855   1.044       .  S
N1851      H1856   1.038       .  S
N1854      H1857   1.046       .  S
N1854      H1858   1.046       .  S
C1859      C1860   1.403       .  A
C1859      C1864   1.392       .  A
C1859      H1866   1.083       .  S
C1860      C1861   1.413       .  A
C1861      C1862   1.395       .  A
C1861      N1868   1.439       .  S
C1862      C1863   1.404       .  A
C1862      H1867   1.083       .  S
C1863      C1864   1.414       .  A
C1864      N1865   1.439       .  S
N1865      H1869   1.046       .  S
N1865      H1870   1.045       .  S
N1868      H1871   1.045       .  S
N1868      H1872   1.046       .  S
C1873      C1874   1.405       .  A
C1873      C1878   1.405       .  A
C1873      H1880   1.084       .  S
C1874      C1875   1.426       .  A
C1875      C1876   1.410       .  A
C1875      N1882   1.438       .  S
C1876      C1877   1.404       .  A
C1876      H1881   1.084       .  S
C1877      C1878   1.413       .  A
C1878      N1879   1.431       .  S
N1879      H1883   1.045       .  S
N1879      H1884   1.045       .  S
N1882      H1885   1.039       .  S
N1882      H1886   1.046       .  S
C1887      C1888   1.411       .  A
C1887      C1892   1.417       .  A
C1887      H1894   1.082       .  S
C1888      C1889   1.406       .  A
C1889      C1890   1.401       .  A
C1889      N1896   1.437       .  S
C1890      C1891   1.415       .  A
C1890      H1895   1.083       .  S
C1891      C1892   1.419       .  A
C1892      N1893   1.431       .  S
N1893      H1897   1.045       .  S
N1893      H1898   1.045       .  S
N1896      H1899   1.043       .  S
N1896      H1900   1.045       .  S
C1901      C1902   1.408       .  A
C1901      C1906   1.413       .  A
C1901      H1908   1.080       .  S
C1902      C1903   1.412       .  A
C1903      C1904   1.417       .  A
C1903      N1910   1.435       .  S
C1904      C1905   1.413       .  A
C1904      H1909   1.083       .  S
C1905      C1906   1.423       .  A
C1906      N1907   1.432       .  S
N1907      H1911   1.044       .  S
N1907      H1912   1.045       .  S
N1910      H1913   1.045       .  S
N1910      H1914   1.045       .  S
C1915      C1916   1.404       .  A
C1915      C1920   1.418       .  A
C1915      H1922   1.084       .  S
C1916      C1917   1.418       .  A
C1917      C1918   1.418       .  A
C1917      N1924   1.436       .  S
C1918      C1919   1.409       .  A
C1918      H1923   1.083       .  S
C1919      C1920   1.423       .  A
C1920      N1921   1.437       .  S
N1921      H1925   1.046       .  S
N1921      H1926   1.045       .  S
N1924      H1927   1.042       .  S
N1924      H1928   1.045       .  S
C1929      C1930   1.405       .  A
C1929      C1934   1.417       .  A
C1929      H1936   1.080       .  S
C1930      C1931   1.411       .  A
C1931      C1932   1.414       .  A
C1931      N1938   1.431       .  S
C1932      C1933   1.412       .  A
C1932      H1937   1.083       .  S
C1933      C1934   1.423       .  A
C1934      N1935   1.437       .  S
N1935      H1939   1.046       .  S
N1935      H1940   1.045       .  S
N1938      H1941   1.045       .  S
N1938      H1942   1.045       .  S
C1943      C1944   1.404       .  A
C1943      C1948   1.417       .  A
C1943      H1950   1.084       .  S
C1944      C1945   1.421       .  A
C1945      C1946   1.415       .  A
C1945      N1952   1.437       .  S
C1946      C1947   1.412       .  A
C1946      H1951   1.083       .  S
C1947      C1948   1.424       .  A
C1948      N1949   1.437       .  S
N1949      H1953   1.046       .  S
N1949      H1954   1.046       .  S
N1952      H1955   1.042       .  S
N1952      H1956   1.046       .  S
C1957      C1958   1.411       .  A
C1957      C1962   1.413       .  A
C1957      H1964   1.083       .  S
C1958      C1959   1.418       .  A
C1959      C1960   1.412       .  A
C1959      N1966   1.437       .  S
C1960      C1961   1.404       .  A
C1960      H1965   1.079       .  S
C1961      C1962   1.409       .  A
C1962      N1963   1.437       .  S
N1963      H1967   1.045       .  S
N1963      H1968   1.045       .  S
N1966      H1969   1.045       .  S
N1966      H1970   1.046       .  S
C1971      C1972   1.413       .  A
C1971      C1976   1.402       .  A
C1971      H1978   1.084       .  S
C1972      C1973   1.426       .  A
C1973      C1974   1.418       .  A
C1973      N1980   1.438       .  S
C1974      C1975   1.406       .  A
C1974      H1979   1.083       .  S
C1975      C1976   1.407       .  A
C1976      N1977   1.432       .  S
N1977      H1981   1.045       .  S
N1977      H1982   1.046       .  S
N1980      H1983   1.039       .  S
N1980      H1984   1.046       .  S
C1985      C1986   1.408       .  A
C1985      C1990   1.419       .  A
C1985      H1992   1.083       .  S
C1986      C1987   1.422       .  A
C1987      C1988   1.395       .  A
C1987      N1994   1.440       .  S
C1988      C1989   1.393       .  A
C1988      H1993   1.080       .  S
C1989      C1990   1.415       .  A
C1990      N1991   1.436       .  S
N1991      H1995   1.045       .  S
N1991      H1996   1.044       .  S
N1994      H1997   1.045       .  S
N1994      H1998   1.046       .  S
C1999      C2000   1.407       .  A
C1999      C2004   1.417       .  A
C1999      H2006   1.084       .  S
C2000      C2001   1.411       .  A
C2001      C2002   1.410       .  A
C2001      N2008   1.432       .  S
C2002      C2003   1.410       .  A
C2002      H2007   1.084       .  S
C2003      C2004   1.427       .  A
C2004      N2005   1.438       .  S
N2005      H2009   1.045       .  S
N2005      H2010   1.040       .  S
N2008      H2011   1.045       .  S
N2008      H2012   1.045       .  S
C2013      C2014   1.398       .  A
C2013      C2018   1.399       .  A
C2013      H2020   1.084       .  S
C2014      C2015   1.411       .  A
C2015      C2016   1.397       .  A
C2015      N2022   1.439       .  S
C2016      C2017   1.403       .  A
C2016      H2021   1.084       .  S
C2017      C2018   1.418       .  A
C2018      N2019   1.439       .  S
N2019      H2023   1.046       .  S
N2019      H2024   1.043       .  S
N2022      H2025   1.044       .  S
N2022      H2026   1.046       .  S
C2027      C2028   1.401       .  A
C2027      C2032   1.397       .  A
C2027      H2034   1.079       .  S
C2028      C2029   1.413       .  A
C2029      C2030   1.422       .  A
C2029      N2036   1.436       .  S
C2030      C2031   1.411       .  A
C2030      H2035   1.083       .  S
C2031      C2032   1.419       .  A
C2032      N2033   1.438       .  S
N2033      H2037   1.046       .  S
N2033      H2038   1.044       .  S
N2036      H2039   1.045       .  S
N2036      H2040   1.045       .  S
C2041      C2042   1.411       .  A
C2041      C2046   1.414       .  A
C2041      H2048   1.083       .  S
C2042      C2043   1.422       .  A
C2043      C2044   1.419       .  A
C2043      N2050   1.437       .  S
C2044      C2045   1.405       .  A
C2044      H2049   1.083       .  S
C2045      C2046   1.411       .  A
C2046      N2047   1.436       .  S
N2047      H2051   1.045       .  S
N2047      H2052   1.045       .  S
N2050      H2053   1.045       .  S
N2050      H2054   1.046       .  S
C2055      C2056   1.406       .  A
C2055      C2060   1.402       .  A
C2055      H2062   1.084       .  S
C2056      C2057   1.416       .  A
C2057      C2058   1.416       .  A
C2057      N2064   1.437       .  S
C2058      C2059   1.406       .  A
C2058      H2063   1.082       .  S
C2059      C2060   1.411       .  A
C2060      N2061   1.432       .  S
N2061      H2065   1.045       .  S
N2061      H2066   1.046       .  S
N2064      H2067   1.045       .  S
N2064      H2068   1.046       .  S
C2069      C2070   1.406       .  A
C2069      C2074   1.396       .  A
C2069      H2076   1.084       .  S
C2070      C2071   1.407       .  A
C2071      C2072   1.389       .  A
C2071      N2078   1.439       .  S
C2072      C2073   1.409       .  A
C2072      H2077   1.082       .  S
C2073      C2074   1.406       .  A
C2074      N2075   1.430       .  S
N2075      H2079   1.045       .  S
N2075      H2080   1.046       .  S
N2078      H2081   1.045       .  S
N2078      H2082   1.046       .  S
C2083      C2084   1.400       .  A
C2083      C2088   1.390       .  A
C2083      H2090   1.084       .  S
C2084      C2085   1.407       .  A
C2085      C2086   1.402       .  A
C2085      N2092   1.432       .  S
C2086      C2087   1.403       .  A
C2086      H2091   1.084       .  S
C2087      C2088   1.406       .  A
C2088      N2089   1.432       .  S
N2089      H2093   1.046       .  S
N2089      H2094   1.046       .  S
N2092      H2095   1.045       .  S
N2092      H2096   1.046       .  S
C2097      C2098   1.404       .  A
C2097      C2102   1.406       .  A
C2097      H2104   1.084       .  S
C2098      C2099   1.414       .  A
C2099      C2100   1.404       .  A
C2099      N2106   1.431       .  S
C2100      C2101   1.410       .  A
C2100      H2105   1.083       .  S
C2101      C2102   1.423       .  A
C2102      N2103   1.432       .  S
N2103      H2107   1.044       .  S
N2103      H2108   1.045       .  S
N2106      H2109   1.040       .  S
N2106      H2110   1.043       .  S
C2111      C2112   1.397       .  A
C2111      C2116   1.388       .  A
C2111      H2118   1.084       .  S
C2112      C2113   1.409       .  A
C2113      C2114   1.387       .  A
C2113      N2120   1.438       .  S
C2114      C2115   1.401       .  A
C2114      H2119   1.085       .  S
C2115      C2116   1.410       .  A
C2116      N2117   1.437       .  S
N2117      H2121   1.045       .  S
N2117      H2122   1.045       .  S
N2120      H2123   1.043       .  S
N2120      H2124   1.046       .  S
C2125      C2126   1.410       .  A
C2125      C2130   1.406       .  A
C2125      H2132   1.083       .  S
C2126      C2127   1.412       .  A
C2127      C2128   1.389       .  A
C2127      N2134   1.439       .  S
C2128      C2129   1.405       .  A
C2128      H2133   1.084       .  S
C2129      C2130   1.408       .  A
C2130      N2131   1.436       .  S
N2131      H2135   1.046       .  S
N2131      H2136   1.043       .  S
N2134      H2137   1.046       .  S
N2134      H2138   1.046       .  S
C2139      C2140   1.410       .  A
C2139      C2144   1.407       .  A
C2139      H2146   1.083       .  S
C2140      C2141   1.415       .  A
C2141      C2142   1.388       .  A
C2141      N2148   1.440       .  S
C2142      C2143   1.402       .  A
C2142      H2147   1.084       .  S
C2143      C2144   1.408       .  A
C2144      N2145   1.437       .  S
N2145      H2149   1.045       .  S
N2145      H2150   1.045       .  S
N2148      H2151   1.045       .  S
N2148      H2152   1.046       .  S
C2153      C2154   1.413       .  A
C2153      C2158   1.418       .  A
C2153      H2160   1.083       .  S
C2154      C2155   1.394       .  A
C2155      C2156   1.391       .  A
C2155      N2162   1.430       .  S
C2156      C2157   1.419       .  A
C2156      H2161   1.083       .  S
C2157      C2158   1.421       .  A
C2158      N2159   1.434       .  S
N2159      H2163   1.045       .  S
N2159      H2164   1.042       .  S
N2162      H2165   1.044       .  S
N2162      H2166   1.044       .  S
C2167      C2168   1.404       .  A
C2167      C2172   1.413       .  A
C2167      H2174   1.083       .  S
C2168      C2169   1.418       .  A
C2169      C2170   1.413       .  A
C2169      N2176   1.436       .  S
C2170      C2171   1.406       .  A
C2170      H2175   1.083       .  S
C2171      C2172   1.421       .  A
C2172      N2173   1.438       .  S
N2173      H2177   1.046       .  S
N2173      H2178   1.045       .  S
N2176      H2179   1.042       .  S
N2176      H2180   1.045       .  S
C2181      C2182   1.408       .  A
C2181      C2186   1.418       .  A
C2181      H2188   1.083       .  S
C2182      C2183   1.432       .  A
C2183      C2184   1.395       .  A
C2183      N2190   1.435       .  S
C2184      C2185   1.394       .  A
C2184      H2189   1.083       .  S
C2185      C2186   1.423       .  A
C2186      N2187   1.436       .  S
N2187      H2191   1.045       .  S
N2187      H2192   1.043       .  S
N2190      H2193   1.045       .  S
N2190      H2194   1.044       .  S
C2195      C2196   1.408       .  A
C2195      C2200   1.401       .  A
C2195      H2202   1.084       .  S
C2196      C2197   1.416       .  A
C2197      C2198   1.406       .  A
C2197      N2204   1.432       .  S
C2198      C2199   1.407       .  A
C2198      H2203   1.082       .  S
C2199      C2200   1.410       .  A
C2200      N2201   1.439       .  S
N2201      H2205   1.046       .  S
N2201      H2206   1.039   1_556  S
N2204      H2207   1.045       .  S
N2204      H2208   1.044       .  S
C2209      C2210   1.407       .  A
C2209      C2214   1.422       .  A
C2209      H2216   1.083       .  S
C2210      C2211   1.411       .  A
C2211      C2212   1.416       .  A
C2211      N2218   1.431       .  S
C2212      C2213   1.413       .  A
C2212      H2217   1.083       .  S
C2213      C2214   1.426       .  A
C2214      N2215   1.437       .  S
N2215      H2219   1.046       .  S
N2215      H2220   1.045       .  S
N2218      H2221   1.043       .  S
N2218      H2222   1.041       .  S
C2223      C2224   1.404       .  A
C2223      C2228   1.417       .  A
C2223      H2230   1.083       .  S
C2224      C2225   1.417       .  A
C2225      C2226   1.420       .  A
C2225      N2232   1.435       .  S
C2226      C2227   1.410       .  A
C2226      H2231   1.083       .  S
C2227      C2228   1.424       .  A
C2228      N2229   1.437       .  S
N2229      H2233   1.046       .  S
N2229      H2234   1.045       .  S
N2232      H2235   1.043       .  S
N2232      H2236   1.045       .  S
C2237      C2238   1.411       .  A
C2237      C2242   1.419       .  A
C2237      H2244   1.083       .  S
C2238      C2239   1.412       .  A
C2239      C2240   1.414       .  A
C2239      N2246   1.428       .  S
C2240      C2241   1.412       .  A
C2240      H2245   1.083       .  S
C2241      C2242   1.425       .  A
C2242      N2243   1.431       .  S
N2243      H2247   1.044       .  S
N2243      H2248   1.046       .  S
N2246      H2249   1.045       .  S
N2246      H2250   1.044       .  S
C2251      C2252   1.408       .  A
C2251      C2256   1.421       .  A
C2251      H2258   1.083       .  S
C2252      C2253   1.413       .  A
C2253      C2254   1.411       .  A
C2253      N2260   1.429       .  S
C2254      C2255   1.408       .  A
C2254      H2259   1.083       .  S
C2255      C2256   1.422       .  A
C2256      N2257   1.437       .  S
N2257      H2261   1.046       .  S
N2257      H2262   1.045       .  S
N2260      H2263   1.046       .  S
N2260      H2264   1.043       .  S
C2265      C2266   1.406       .  A
C2265      C2270   1.402       .  A
C2265      H2272   1.085       .  S
C2266      C2267   1.427       .  A
C2267      C2268   1.414       .  A
C2267      N2274   1.438       .  S
C2268      C2269   1.405       .  A
C2268      H2273   1.084       .  S
C2269      C2270   1.411       .  A
C2270      N2271   1.431       .  S
N2271      H2275   1.045       .  S
N2271      H2276   1.046       .  S
N2274      H2277   1.039       .  S
N2274      H2278   1.046       .  S
C2279      C2280   1.405       .  A
C2279      C2284   1.410       .  A
C2279      H2286   1.084       .  S
C2280      C2281   1.412       .  A
C2281      C2282   1.403       .  A
C2281      N2288   1.432       .  S
C2282      C2283   1.409       .  A
C2282      H2287   1.083       .  S
C2283      C2284   1.424       .  A
C2284      N2285   1.440       .  S
N2285      H2289   1.046       .  S
N2285      H2290   1.042       .  S
N2288      H2291   1.042       .  S
N2288      H2292   1.043       .  S
C2293      C2294   1.404       .  A
C2293      C2298   1.410       .  A
C2293      H2300   1.083       .  S
C2294      C2295   1.410       .  A
C2295      C2296   1.407       .  A
C2295      N2302   1.434       .  S
C2296      C2297   1.407       .  A
C2296      H2301   1.084       .  S
C2297      C2298   1.422       .  A
C2298      N2299   1.438       .  S
N2299      H2303   1.046       .  S
N2299      H2304   1.044       .  S
N2302      H2305   1.040       .  S
N2302      H2306   1.045       .  S
C2307      C2308   1.410       .  A
C2307      C2312   1.418       .  A
C2307      H2314   1.083       .  S
C2308      C2309   1.411       .  A
C2309      C2310   1.404       .  A
C2309      N2316   1.432       .  S
C2310      C2311   1.409       .  A
C2310      H2315   1.084       .  S
C2311      C2312   1.412       .  A
C2312      N2313   1.431       .  S
N2313      H2317   1.045       .  S
N2313      H2318   1.046       .  S
N2316      H2319   1.045       .  S
N2316      H2320   1.045       .  S
C2321      C2322   1.407       .  A
C2321      C2326   1.414       .  A
C2321      H2328   1.082       .  S
C2322      C2323   1.404       .  A
C2323      C2324   1.402       .  A
C2323      N2330   1.432       .  S
C2324      C2325   1.413       .  A
C2324      H2329   1.084       .  S
C2325      C2326   1.423       .  A
C2326      N2327   1.436       .  S
N2327      H2331   1.045       .  S
N2327      H2332   1.040       .  S
N2330      H2333   1.045       .  S
N2330      H2334   1.045       .  S
C2335      C2336   1.419       .  A
C2335      C2340   1.388       .  A
C2335      H2342   1.082       .  S
C2336      C2337   1.424       .  A
C2337      C2338   1.421       .  A
C2337      N2344   1.435       .  S
C2338      C2339   1.415       .  A
C2338      H2343   1.083       .  S
C2339      C2340   1.395       .  A
C2340      N2341   1.429       .  S
N2341      H2345   1.041       .  S
N2341      H2346   1.046       .  S
N2344      H2347   1.041       .  S
N2344      H2348   1.045       .  S
C2349      C2350   1.408       .  A
C2349      C2354   1.411       .  A
C2349      H2356   1.081       .  S
C2350      C2351   1.415       .  A
C2351      C2352   1.379       .  A
C2351      N2358   1.435       .  S
C2352      C2353   1.398       .  A
C2352      H2357   1.084       .  S
C2353      C2354   1.413       .  A
C2354      N2355   1.439       .  S
N2355      H2359   1.046       .  S
N2355      H2360   1.043       .  S
N2358      H2361   1.046       .  S
N2358      H2362   1.044       .  S
C2363      C2364   1.410       .  A
C2363      C2368   1.409       .  A
C2363      H2370   1.083       .  S
C2364      C2365   1.422       .  A
C2365      C2366   1.407       .  A
C2365      N2372   1.432       .  S
C2366      C2367   1.407       .  A
C2366      H2371   1.084       .  S
C2367      C2368   1.410       .  A
C2368      N2369   1.430       .  S
N2369      H2373   1.044       .  S
N2369      H2374   1.045       .  S
N2372      H2375   1.045       .  S
N2372      H2376   1.044       .  S
C2377      C2378   1.406       .  A
C2377      C2382   1.410       .  A
C2377      H2384   1.083       .  S
C2378      C2379   1.438       .  A
C2379      C2380   1.407       .  A
C2379      N2386   1.441       .  S
C2380      C2381   1.397       .  A
C2380      H2385   1.085       .  S
C2381      C2382   1.419       .  A
C2382      N2383   1.436       .  S
N2383      H2387   1.045       .  S
N2383      H2388   1.040       .  S
N2386      H2389   1.033       .  S
N2386      H2390   1.046       .  S
C2391      C2392   1.405       .  A
C2391      C2396   1.409       .  A
C2391      H2398   1.084       .  S
C2392      C2393   1.411       .  A
C2393      C2394   1.416       .  A
C2393      N2400   1.436       .  S
C2394      C2395   1.413       .  A
C2394      H2399   1.083       .  S
C2395      C2396   1.424       .  A
C2396      N2397   1.432       .  S
N2397      H2401   1.044       .  S
N2397      H2402   1.045       .  S
N2400      H2403   1.040       .  S
N2400      H2404   1.045       .  S
C2405      C2406   1.408       .  A
C2405      C2410   1.401       .  A
C2405      H2412   1.083       .  S
C2406      C2407   1.412       .  A
C2407      C2408   1.394       .  A
C2407      N2414   1.439       .  S
C2408      C2409   1.404       .  A
C2408      H2413   1.085       .  S
C2409      C2410   1.404       .  A
C2410      N2411   1.437       .  S
N2411      H2415   1.046       .  S
N2411      H2416   1.043       .  S
N2414      H2417   1.046       .  S
N2414      H2418   1.046       .  S
C2419      C2420   1.402       .  A
C2419      C2424   1.397       .  A
C2419      H2426   1.085       .  S
C2420      C2421   1.400       .  A
C2421      C2422   1.387       .  A
C2421      N2428   1.435       .  S
C2422      C2423   1.404       .  A
C2422      H2427   1.078       .  S
C2423      C2424   1.413       .  A
C2424      N2425   1.431       .  S
N2425      H2429   1.043       .  S
N2425      H2430   1.039       .  S
N2428      H2431   1.045       .  S
N2428      H2432   1.044       .  S
C2433      C2434   1.408       .  A
C2433      C2438   1.412       .  A
C2433      H2440   1.083       .  S
C2434      C2435   1.423       .  A
C2435      C2436   1.416       .  A
C2435      N2442   1.437       .  S
C2436      C2437   1.404       .  A
C2436      H2441   1.084       .  S
C2437      C2438   1.423       .  A
C2438      N2439   1.437       .  S
N2439      H2443   1.045       .  S
N2439      H2444   1.041       .  S
N2442      H2445   1.045       .  S
N2442      H2446   1.046       .  S
C2447      C2448   1.400       .  A
C2447      C2452   1.392       .  A
C2447      H2454   1.085       .  S
C2448      C2449   1.408       .  A
C2449      C2450   1.390       .  A
C2449      N2456   1.437       .  S
C2450      C2451   1.403       .  A
C2450      H2455   1.085       .  S
C2451      C2452   1.423       .  A
C2452      N2453   1.440       .  S
N2453      H2457   1.043       .  S
N2453      H2458   1.035       .  S
N2456      H2459   1.043       .  S
N2456      H2460   1.046       .  S
C2461      C2462   1.404       .  A
C2461      C2466   1.396       .  A
C2461      H2468   1.083       .  S
C2462      C2463   1.413       .  A
C2463      C2464   1.394       .  A
C2463      N2470   1.439       .  S
C2464      C2465   1.403       .  A
C2464      H2469   1.084       .  S
C2465      C2466   1.413       .  A
C2466      N2467   1.439       .  S
N2467      H2471   1.046       .  S
N2467      H2472   1.043       .  S
N2470      H2473   1.046       .  S
N2470      H2474   1.046       .  S
C2475      C2476   1.402       .  A
C2475      C2480   1.396       .  A
C2475      H2482   1.083       .  S
C2476      C2477   1.416       .  A
C2477      C2478   1.390       .  A
C2477      N2484   1.440       .  S
C2478      C2479   1.401       .  A
C2478      H2483   1.083       .  S
C2479      C2480   1.415       .  A
C2480      N2481   1.439       .  S
N2481      H2485   1.046       .  S
N2481      H2486   1.046       .  S
N2484      H2487   1.046       .  S
N2484      H2488   1.046       .  S
C2489      C2490   1.410       .  A
C2489      C2494   1.414       .  A
C2489      H2496   1.082       .  S
C2490      C2491   1.415       .  A
C2491      C2492   1.421       .  A
C2491      N2498   1.436       .  S
C2492      C2493   1.414       .  A
C2492      H2497   1.083       .  S
C2493      C2494   1.424       .  A
C2494      N2495   1.432       .  S
N2495      H2499   1.044       .  S
N2495      H2500   1.045       .  S
N2498      H2501   1.045       .  S
N2498      H2502   1.045       .  S
C2503      C2504   1.407       .  A
C2503      C2508   1.411       .  A
C2503      H2510   1.081       .  S
C2504      C2505   1.421       .  A
C2505      C2506   1.413       .  A
C2505      N2512   1.438       .  S
C2506      C2507   1.412       .  A
C2506      H2511   1.083       .  S
C2507      C2508   1.424       .  A
C2508      N2509   1.432       .  S
N2509      H2513   1.045       .  S
N2509      H2514   1.045       .  S
N2512      H2515   1.041       .  S
N2512      H2516   1.045       .  S
C2517      C2518   1.410       .  A
C2517      C2522   1.414       .  A
C2517      H2524   1.082       .  S
C2518      C2519   1.414       .  A
C2519      C2520   1.418       .  A
C2519      N2526   1.435       .  S
C2520      C2521   1.413       .  A
C2520      H2525   1.083       .  S
C2521      C2522   1.422       .  A
C2522      N2523   1.431       .  S
N2523      H2527   1.044       .  S
N2523      H2528   1.046       .  S
N2526      H2529   1.045       .  S
N2526      H2530   1.045       .  S
C2531      C2532   1.412       .  A
C2531      C2536   1.419       .  A
C2531      H2538   1.083       .  S
C2532      C2533   1.422       .  A
C2533      C2534   1.420       .  A
C2533      N2540   1.437       .  S
C2534      C2535   1.408       .  A
C2534      H2539   1.081       .  S
C2535      C2536   1.422       .  A
C2536      N2537   1.440       .  S
N2537      H2541   1.044       .  S
N2537      H2542   1.042       .  S
N2540      H2543   1.046       .  S
N2540      H2544   1.046       .  S
C2545      C2546   1.411       .  A
C2545      C2550   1.414       .  A
C2545      H2552   1.079       .  S
C2546      C2547   1.407       .  A
C2547      C2548   1.407       .  A
C2547      N2554   1.440       .  S
C2548      C2549   1.416       .  A
C2548      H2553   1.084       .  S
C2549      C2550   1.420       .  A
C2550      N2551   1.436       .  S
N2551      H2555   1.045       .  S
N2551      H2556   1.041       .  S
N2554      H2557   1.039       .  S
N2554      H2558   1.045       .  S
C2559      C2560   1.407       .  A
C2559      C2564   1.406       .  A
C2559      H2566   1.084       .  S
C2560      C2561   1.421       .  A
C2561      C2562   1.411       .  A
C2561      N2568   1.437       .  S
C2562      C2563   1.402       .  A
C2562      H2567   1.084       .  S
C2563      C2564   1.420       .  A
C2564      N2565   1.437       .  S
N2565      H2569   1.045       .  S
N2565      H2570   1.040       .  S
N2568      H2571   1.045       .  S
N2568      H2572   1.046       .  S
C2573      C2574   1.408       .  A
C2573      C2578   1.422       .  A
C2573      H2580   1.083       .  S
C2574      C2575   1.423       .  A
C2575      C2576   1.401       .  A
C2575      N2582   1.440       .  S
C2576      C2577   1.395       .  A
C2576      H2581   1.081       .  S
C2577      C2578   1.418       .  A
C2578      N2579   1.435       .  S
N2579      H2583   1.045       .  S
N2579      H2584   1.042       .  S
N2582      H2585   1.045       .  S
N2582      H2586   1.046       .  S
C2587      C2588   1.410       .  A
C2587      C2592   1.409       .  A
C2587      H2594   1.078       .  S
C2588      C2589   1.407       .  A
C2589      C2590   1.400       .  A
C2589      N2596   1.432       .  S
C2590      C2591   1.409       .  A
C2590      H2595   1.084       .  S
C2591      C2592   1.415       .  A
C2592      N2593   1.432       .  S
N2593      H2597   1.045       .  S
N2593      H2598   1.045       .  S
N2596      H2599   1.045       .  S
N2596      H2600   1.046       .  S
C2601      C2602   1.403       .  A
C2601      C2606   1.412       .  A
C2601      H2608   1.076       .  S
C2602      C2603   1.420       .  A
C2603      C2604   1.413       .  A
C2603      N2610   1.437       .  S
C2604      C2605   1.412       .  A
C2604      H2609   1.083       .  S
C2605      C2606   1.415       .  A
C2606      N2607   1.438       .  S
N2607      H2611   1.046       .  S
N2607      H2612   1.046       .  S
N2610      H2613   1.042       .  S
N2610      H2614   1.045       .  S
C2615      C2616   1.402       .  A
C2615      C2620   1.415       .  A
C2615      H2622   1.081       .  S
C2616      C2617   1.418       .  A
C2617      C2618   1.417       .  A
C2617      N2624   1.435       .  S
C2618      C2619   1.408       .  A
C2618      H2623   1.083       .  S
C2619      C2620   1.425       .  A
C2620      N2621   1.438       .  S
N2621      H2625   1.046       .  S
N2621      H2626   1.045       .  S
N2624      H2627   1.041       .  S
N2624      H2628   1.045       .  S
C2629      C2630   1.393       .  A
C2629      C2634   1.398       .  A
C2629      H2636   1.080       .  S
C2630      C2631   1.416       .  A
C2631      C2632   1.421       .  A
C2631      N2638   1.436       .  S
C2632      C2633   1.408       .  A
C2632      H2637   1.083       .  S
C2633      C2634   1.427       .  A
C2634      N2635   1.440       .  S
N2635      H2639   1.046       .  S
N2635      H2640   1.045       .  S
N2638      H2641   1.043       .  S
N2638      H2642   1.045       .  S
C2643      C2644   1.407       .  A
C2643      C2648   1.418       .  A
C2643      H2650   1.081       .  S
C2644      C2645   1.409       .  A
C2645      C2646   1.399       .  A
C2645      N2652   1.432       .  S
C2646      C2647   1.407       .  A
C2646      H2651   1.084       .  S
C2647      C2648   1.416       .  A
C2648      N2649   1.436       .  S
N2649      H2653   1.046       .  S
N2649      H2654   1.045       .  S
N2652      H2655   1.044       .  S
N2652      H2656   1.045       .  S
C2657      C2658   1.403       .  A
C2657      C2662   1.409       .  A
C2657      H2664   1.084       .  S
C2658      C2659   1.415       .  A
C2659      C2660   1.415       .  A
C2659      N2666   1.429       .  S
C2660      C2661   1.406       .  A
C2660      H2665   1.083       .  S
C2661      C2662   1.426       .  A
C2662      N2663   1.439       .  S
N2663      H2667   1.046       .  S
N2663      H2668   1.044       .  S
N2666      H2669   1.045       .  S
N2666      H2670   1.045       .  S
C2671      C2672   1.406       .  A
C2671      C2676   1.409       .  A
C2671      H2678   1.083       .  S
C2672      C2673   1.417       .  A
C2673      C2674   1.417       .  A
C2673      N2680   1.436       .  S
C2674      C2675   1.414       .  A
C2674      H2679   1.083       .  S
C2675      C2676   1.425       .  A
C2676      N2677   1.432       .  S
N2677      H2681   1.044       .  S
N2677      H2682   1.045       .  S
N2680      H2683   1.038       .  S
N2680      H2684   1.045       .  S
C2685      C2686   1.402       .  A
C2685      C2690   1.407       .  A
C2685      H2692   1.083       .  S
C2686      C2687   1.418       .  A
C2687      C2688   1.414       .  A
C2687      N2694   1.436       .  S
C2688      C2689   1.409       .  A
C2688      H2693   1.083       .  S
C2689      C2690   1.425       .  A
C2690      N2691   1.433       .  S
N2691      H2695   1.043       .  S
N2691      H2696   1.045       .  S
N2694      H2697   1.038       .  S
N2694      H2698   1.045       .  S
C2699      C2700   1.410       .  A
C2699      C2704   1.420       .  A
C2699      H2706   1.083       .  S
C2700      C2701   1.411       .  A
C2701      C2702   1.409       .  A
C2701      N2708   1.427       .  S
C2702      C2703   1.408       .  A
C2702      H2707   1.083       .  S
C2703      C2704   1.418       .  A
C2704      N2705   1.437       .  S
N2705      H2709   1.046       .  S
N2705      H2710   1.046       .  S
N2708      H2711   1.045       .  S
N2708      H2712   1.045       .  S
C2713      C2714   1.416       .  A
C2713      C2718   1.398       .  A
C2713      H2720   1.083       .  S
C2714      C2715   1.416       .  A
C2715      C2716   1.412       .  A
C2715      N2722   1.431       .  S
C2716      C2717   1.412       .  A
C2716      H2721   1.083       .  S
C2717      C2718   1.404       .  A
C2718      N2719   1.442       .  S
N2719      H2723   1.045       .  S
N2719      H2724   1.040       .  S
N2722      H2725   1.045       .  S
N2722      H2726   1.045       .  S
C2727      C2728   1.409       .  A
C2727      C2732   1.419       .  A
C2727      H2734   1.082       .  S
C2728      C2729   1.408       .  A
C2729      C2730   1.410       .  A
C2729      N2736   1.437       .  S
C2730      C2731   1.415       .  A
C2730      H2735   1.083       .  S
C2731      C2732   1.421       .  A
C2732      N2733   1.437       .  S
N2733      H2737   1.046       .  S
N2733      H2738   1.045       .  S
N2736      H2739   1.044       .  S
N2736      H2740   1.045       .  S
C2741      C2742   1.405       .  A
C2741      C2746   1.411       .  A
C2741      H2748   1.084       .  S
C2742      C2743   1.405       .  A
C2743      C2744   1.407       .  A
C2743      N2750   1.429       .  S
C2744      C2745   1.410       .  A
C2744      H2749   1.083       .  S
C2745      C2746   1.425       .  A
C2746      N2747   1.439       .  S
N2747      H2751   1.046       .  S
N2747      H2752   1.043       .  S
N2750      H2753   1.042       .  S
N2750      H2754   1.045       .  S
C2755      C2756   1.404       .  A
C2755      C2760   1.402       .  A
C2755      H2762   1.085       .  S
C2756      C2757   1.427       .  A
C2757      C2758   1.417       .  A
C2757      N2764   1.437       .  S
C2758      C2759   1.407       .  A
C2758      H2763   1.084       .  S
C2759      C2760   1.413       .  A
C2760      N2761   1.428       .  S
N2761      H2765   1.046       .  S
N2761      H2766   1.046       .  S
N2764      H2767   1.040       .  S
N2764      H2768   1.045       .  S
